<?xml version="1.0" encoding="UTF-8"?>

<!-- generated on 2025-04-08 13:40:45 by Eclipse SUMO netconvert Version 1.19.0
<configuration xmlns:xsi="http://www.w3.org/2001/XMLSchema-instance" xsi:noNamespaceSchemaLocation="http://sumo.dlr.de/xsd/netconvertConfiguration.xsd">

    <input>
        <sumo-net-file value="rambouillet/rambouillet.net.xml"/>
    </input>

    <output>
        <plain-output-prefix value="rambouillet/rambouillet"/>
    </output>

    <processing>
        <geometry.min-radius.fix.railways value="false"/>
        <geometry.max-grade.fix value="false"/>
        <offset.disable-normalization value="true"/>
        <lefthand value="0"/>
    </processing>

    <tls_building>
        <tls.ignore-internal-junction-jam value="1"/>
    </tls_building>

    <junctions>
        <no-turnarounds value="true"/>
        <junctions.corner-detail value="5"/>
        <junctions.limit-turn-speed value="5.50"/>
        <rectangular-lane-cut value="0"/>
    </junctions>

    <pedestrian>
        <walkingareas value="0"/>
    </pedestrian>

</configuration>
-->

<connections version="1.16" xmlns:xsi="http://www.w3.org/2001/XMLSchema-instance" xsi:noNamespaceSchemaLocation="http://sumo.dlr.de/xsd/connections_file.xsd">
    <connection from="-1000594767#0" to="1000594767#0" fromLane="0" toLane="0"/>

    <connection from="-1000594767#1" to="-177355753" fromLane="0" toLane="0"/>
    <connection from="-1000594767#1" to="-1000594767#0" fromLane="0" toLane="0"/>
    <connection from="-1000594767#1" to="1000594767#1" fromLane="0" toLane="0"/>

    <connection from="-1000594768" to="1000594768" fromLane="0" toLane="0"/>

    <connection from="-1000869272" to="624263837#1" fromLane="0" toLane="0"/>
    <connection from="-1000869272" to="-624263837#0" fromLane="0" toLane="0"/>
    <connection from="-1000869272" to="1000869272" fromLane="0" toLane="0"/>

    <connection from="-1006737124#0" to="984377697#1" fromLane="0" toLane="0"/>
    <connection from="-1006737124#0" to="-984377697#0" fromLane="0" toLane="0"/>
    <connection from="-1006737124#0" to="1006737124#0" fromLane="0" toLane="0"/>

    <connection from="-1006737124#1" to="-1006737124#0" fromLane="0" toLane="0"/>
    <connection from="-1006737124#1" to="-1006737125#1" fromLane="0" toLane="0"/>
    <connection from="-1006737124#1" to="1006737124#1" fromLane="0" toLane="0"/>

    <connection from="-1006737124#2" to="-1006737124#1" fromLane="0" toLane="0"/>
    <connection from="-1006737124#2" to="1006737126" fromLane="0" toLane="0"/>
    <connection from="-1006737124#2" to="1006737124#2" fromLane="0" toLane="0"/>

    <connection from="-1006737124#3" to="-1006737124#2" fromLane="0" toLane="0"/>
    <connection from="-1006737124#3" to="1006737125#0" fromLane="0" toLane="0"/>
    <connection from="-1006737124#3" to="1006737124#3" fromLane="0" toLane="0"/>

    <connection from="-1006737125#0" to="1006737124#3" fromLane="0" toLane="0"/>
    <connection from="-1006737125#0" to="-1006737124#2" fromLane="0" toLane="0"/>
    <connection from="-1006737125#0" to="1006737125#0" fromLane="0" toLane="0"/>

    <connection from="-1006737125#1" to="-1006737125#0" fromLane="0" toLane="0"/>
    <connection from="-1006737125#1" to="-1006737126" fromLane="0" toLane="0"/>
    <connection from="-1006737125#1" to="1006737125#1" fromLane="0" toLane="0"/>

    <connection from="-1006737126" to="1006737124#2" fromLane="0" toLane="0"/>
    <connection from="-1006737126" to="-1006737124#1" fromLane="0" toLane="0"/>
    <connection from="-1006737126" to="1006737126" fromLane="0" toLane="0"/>

    <connection from="-1006807356" to="1006807355" fromLane="0" toLane="0"/>

    <connection from="-1006807358#0" to="265256685#3" fromLane="0" toLane="0"/>
    <connection from="-1006807358#0" to="-265256685#2" fromLane="0" toLane="0"/>
    <connection from="-1006807358#0" to="1006807358#0" fromLane="0" toLane="0"/>

    <connection from="-1006807358#1" to="-1006807358#0" fromLane="0" toLane="0"/>
    <connection from="-1006807358#1" to="-1006807361#3" fromLane="0" toLane="0"/>
    <connection from="-1006807358#1" to="1006807358#1" fromLane="0" toLane="0"/>

    <connection from="-1006807359#0" to="-1006807359#1" fromLane="0" toLane="0"/>
    <connection from="-1006807359#0" to="-1006807358#1" fromLane="0" toLane="0"/>
    <connection from="-1006807359#0" to="1006807360" fromLane="0" toLane="0"/>
    <connection from="-1006807359#0" to="1006807359#0" fromLane="0" toLane="0"/>

    <connection from="-1006807359#1" to="-1006807359#0" fromLane="0" toLane="0"/>

    <connection from="-1006807360" to="1006807359#0" fromLane="0" toLane="0"/>
    <connection from="-1006807360" to="-1006807359#1" fromLane="0" toLane="0"/>
    <connection from="-1006807360" to="-1006807358#1" fromLane="0" toLane="0"/>

    <connection from="-1006807361#0" to="265256685#2" fromLane="0" toLane="0"/>
    <connection from="-1006807361#0" to="775717071#0" fromLane="0" toLane="0"/>
    <connection from="-1006807361#0" to="-265256685#1" fromLane="0" toLane="0"/>
    <connection from="-1006807361#0" to="1006807361#0" fromLane="0" toLane="0"/>

    <connection from="-1006807361#1" to="-1006807362" fromLane="0" toLane="0"/>
    <connection from="-1006807361#1" to="-1006807361#0" fromLane="0" toLane="0"/>
    <connection from="-1006807361#1" to="1006807361#1" fromLane="0" toLane="0"/>

    <connection from="-1006807361#2" to="-1006807361#1" fromLane="0" toLane="0"/>
    <connection from="-1006807361#2" to="-1006807360" fromLane="0" toLane="0"/>
    <connection from="-1006807361#2" to="1006807361#2" fromLane="0" toLane="0"/>

    <connection from="-1006807361#3" to="1006807362" fromLane="0" toLane="0"/>
    <connection from="-1006807361#3" to="-1006807361#2" fromLane="0" toLane="0"/>
    <connection from="-1006807361#3" to="1006807361#3" fromLane="0" toLane="0"/>

    <connection from="-1006807362" to="-1006807361#2" fromLane="0" toLane="0"/>
    <connection from="-1006807362" to="1006807361#3" fromLane="0" toLane="0"/>
    <connection from="-1006807362" to="1006807362" fromLane="0" toLane="0"/>

    <connection from="-1006810196" to="908046976" fromLane="0" toLane="0"/>
    <connection from="-1006810196" to="1006810196" fromLane="0" toLane="0"/>

    <connection from="-1006810197" to="-1006810198" fromLane="0" toLane="0"/>

    <connection from="-1006810198" to="-1107140824" fromLane="0" toLane="0"/>
    <connection from="-1006810198" to="908046975" fromLane="0" toLane="0"/>

    <connection from="-1006810200#0" to="517051842#2" fromLane="0" toLane="0"/>
    <connection from="-1006810200#0" to="-517051842#1" fromLane="0" toLane="0"/>
    <connection from="-1006810200#0" to="1006810201" fromLane="0" toLane="0"/>

    <connection from="-1006810200#1" to="-1006810200#0" fromLane="0" toLane="0"/>
    <connection from="-1006810200#1" to="-1006810202" fromLane="0" toLane="0"/>
    <connection from="-1006810200#1" to="1006810200#1" fromLane="0" toLane="0"/>

    <connection from="-1006810202" to="1006810199#1" fromLane="0" toLane="0"/>
    <connection from="-1006810202" to="1006810202" fromLane="0" toLane="0"/>

    <connection from="-1014903995" to="282569508#0" fromLane="0" toLane="0"/>
    <connection from="-1014903995" to="591647905#1" fromLane="0" toLane="0"/>
    <connection from="-1014903995" to="-591647905#0" fromLane="0" toLane="0"/>

    <connection from="-1014903996#1" to="517051842#0" fromLane="0" toLane="0"/>
    <connection from="-1014903996#1" to="-23027915#4" fromLane="0" toLane="0"/>

    <connection from="-1014906269" to="-28312375#1" fromLane="0" toLane="0"/>

    <connection from="-1014906270#0" to="1014906274#0" fromLane="0" toLane="0"/>
    <connection from="-1014906270#0" to="-1015437769#1" fromLane="0" toLane="0"/>
    <connection from="-1014906270#0" to="74709488#0" fromLane="0" toLane="0"/>
    <connection from="-1014906270#0" to="1014906270#0" fromLane="0" toLane="0"/>

    <connection from="-1014906270#1" to="-361290191#0" fromLane="0" toLane="0"/>
    <connection from="-1014906270#1" to="-1014906270#0" fromLane="0" toLane="0"/>
    <connection from="-1014906270#1" to="361290191#1" fromLane="0" toLane="0"/>

    <connection from="-1014906273" to="-1014906274#0" fromLane="0" toLane="0"/>
    <connection from="-1014906273" to="1014906274#1" fromLane="0" toLane="0"/>
    <connection from="-1014906273" to="1014906272" fromLane="0" toLane="0"/>

    <connection from="-1014906274#0" to="-1015437769#1" fromLane="0" toLane="0"/>
    <connection from="-1014906274#0" to="74709488#0" fromLane="0" toLane="0"/>
    <connection from="-1014906274#0" to="1014906270#0" fromLane="0" toLane="0"/>
    <connection from="-1014906274#0" to="1014906274#0" fromLane="0" toLane="0"/>

    <connection from="-1014906274#1" to="1014906272" fromLane="0" toLane="0"/>
    <connection from="-1014906274#1" to="-1014906274#0" fromLane="0" toLane="0"/>

    <connection from="-1014906275#0" to="-1014906274#1" fromLane="0" toLane="0"/>

    <connection from="-1014906275#1" to="114235499#0" fromLane="0" toLane="0"/>
    <connection from="-1014906275#1" to="-1014906275#0" fromLane="0" toLane="0"/>
    <connection from="-1014906275#1" to="37442457#0" fromLane="0" toLane="0"/>
    <connection from="-1014906275#1" to="1014906275#1" fromLane="0" toLane="0"/>

    <connection from="-1015437769#0" to="830403060" fromLane="0" toLane="0"/>
    <connection from="-1015437769#0" to="-1015437770#1" fromLane="0" toLane="0"/>

    <connection from="-1015437769#1" to="-114235500" fromLane="0" toLane="0"/>
    <connection from="-1015437769#1" to="-1015437769#0" fromLane="0" toLane="0"/>
    <connection from="-1015437769#1" to="1015437769#1" fromLane="0" toLane="0"/>

    <connection from="-1015437770#0" to="-1015437771" fromLane="0" toLane="0"/>
    <connection from="-1015437770#0" to="-549579256" fromLane="0" toLane="0"/>

    <connection from="-1015437770#1" to="-1015437770#0" fromLane="0" toLane="0"/>
    <connection from="-1015437770#1" to="-361290191#3" fromLane="0" toLane="0"/>

    <connection from="-1015437771" to="-361290184#1" fromLane="0" toLane="0"/>

    <connection from="-1015896814#0" to="-361290192" fromLane="0" toLane="0"/>

    <connection from="-1015896814#1" to="-1015896814#0" fromLane="0" toLane="0"/>
    <connection from="-1015896814#1" to="130920725#0" fromLane="0" toLane="0"/>

    <connection from="-1015906257#0" to="-216544757#1" fromLane="0" toLane="0"/>
    <connection from="-1015906257#0" to="-40774356#9" fromLane="0" toLane="0"/>
    <connection from="-1015906257#0" to="1015906257#0" fromLane="0" toLane="0"/>

    <connection from="-1015906257#1" to="-1015906257#0" fromLane="0" toLane="0"/>
    <connection from="-1015906257#1" to="163491743" fromLane="0" toLane="0"/>

    <connection from="-1015906258#0" to="163491727#2" fromLane="0" toLane="0" visibility="9.00"/>

    <connection from="-1015906258#1" to="-216812736" fromLane="0" toLane="0"/>
    <connection from="-1015906258#1" to="-1015906258#0" fromLane="0" toLane="0"/>
    <connection from="-1015906258#1" to="1015906258#1" fromLane="0" toLane="0"/>

    <connection from="-1015906258#2" to="-1015906258#1" fromLane="0" toLane="0"/>
    <connection from="-1015906258#2" to="-216812739" fromLane="0" toLane="0"/>
    <connection from="-1015906258#2" to="1015906258#2" fromLane="0" toLane="0"/>

    <connection from="-1015907231" to="187212762#4" fromLane="0" toLane="0" visibility="9.00"/>

    <connection from="-1016246308#0" to="-707546919#6" fromLane="0" toLane="0"/>
    <connection from="-1016246308#0" to="-707546918#6" fromLane="0" toLane="0"/>
    <connection from="-1016246308#0" to="23027914#0" fromLane="0" toLane="0"/>
    <connection from="-1016246308#0" to="1016246308#0" fromLane="0" toLane="0"/>

    <connection from="-1016248038" to="-75441706#0" fromLane="0" toLane="0"/>

    <connection from="-1018315144#0" to="-1117343612#0" fromLane="0" toLane="0"/>
    <connection from="-1018315144#0" to="216546944#0" fromLane="0" toLane="0"/>
    <connection from="-1018315144#0" to="1117343612#1" fromLane="0" toLane="1"/>
    <connection from="-1018315144#0" to="1018315144#0" fromLane="0" toLane="0"/>

    <connection from="-1018315144#1" to="-1018315144#0" fromLane="0" toLane="0"/>
    <connection from="-1018315144#1" to="40774361" fromLane="0" toLane="0"/>
    <connection from="-1018315144#1" to="1018315144#1" fromLane="0" toLane="0"/>

    <connection from="-1018315144#2" to="333325850" fromLane="0" toLane="0"/>
    <connection from="-1018315144#2" to="-1018315144#1" fromLane="0" toLane="0"/>
    <connection from="-1018315144#2" to="1018315144#2" fromLane="0" toLane="0"/>

    <connection from="-1022620048" to="-234996560#4" fromLane="0" toLane="0"/>
    <connection from="-1022620048" to="-1022620049" fromLane="0" toLane="0"/>

    <connection from="-1022620049" to="-238182732#1" fromLane="0" toLane="0"/>
    <connection from="-1022620049" to="-238182733#1" fromLane="0" toLane="0"/>
    <connection from="-1022620049" to="1022620049" fromLane="0" toLane="0"/>

    <connection from="-1022916180" to="-405394467#0" fromLane="0" toLane="0"/>
    <connection from="-1022916180" to="405394467#1" fromLane="0" toLane="0"/>
    <connection from="-1022916180" to="1022916181" fromLane="0" toLane="0"/>

    <connection from="-1022916183" to="-426141231" fromLane="0" toLane="0" keepClear="0"/>

    <connection from="-1022916185#0" to="-214485668#6" fromLane="0" toLane="0"/>
    <connection from="-1022916185#0" to="-219156849#1" fromLane="0" toLane="0"/>
    <connection from="-1022916185#0" to="214485668#7" fromLane="0" toLane="0"/>

    <connection from="-1022916185#1" to="-1022916185#0" fromLane="0" toLane="0"/>
    <connection from="-1022916185#1" to="214485666#0" fromLane="0" toLane="0"/>
    <connection from="-1022916185#1" to="1022916185#1" fromLane="0" toLane="0"/>

    <connection from="-1024243567" to="-517051840#6" fromLane="0" toLane="0"/>
    <connection from="-1024243567" to="-144556089#0" fromLane="0" toLane="0"/>
    <connection from="-1024243567" to="-144556089#0" fromLane="1" toLane="1"/>
    <connection from="-1024243567" to="412562863#0" fromLane="1" toLane="0"/>
    <connection from="-1024243567" to="144556089#1" fromLane="1" toLane="1"/>

    <connection from="-1024368821" to="-231669486" fromLane="0" toLane="0"/>

    <connection from="-1028466462#0" to="297856699#2" fromLane="0" toLane="0"/>
    <connection from="-1028466462#0" to="-297856699#1" fromLane="0" toLane="0"/>
    <connection from="-1028466462#0" to="1028466462#0" fromLane="0" toLane="0"/>

    <connection from="-1028466462#1" to="-1028466462#0" fromLane="0" toLane="0"/>
    <connection from="-1028466462#1" to="1028466462#1" fromLane="0" toLane="0"/>

    <connection from="-1028466462#2" to="-1028466462#1" fromLane="0" toLane="0"/>
    <connection from="-1028466462#2" to="1028466463" fromLane="0" toLane="0"/>
    <connection from="-1028466462#2" to="1028466462#2" fromLane="0" toLane="0"/>

    <connection from="-1028466462#3" to="-1028466462#2" fromLane="0" toLane="0"/>
    <connection from="-1028466462#3" to="1028466464" fromLane="0" toLane="0"/>
    <connection from="-1028466462#3" to="1028466462#3" fromLane="0" toLane="0"/>

    <connection from="-1028466462#4" to="-1028466462#3" fromLane="0" toLane="0"/>
    <connection from="-1028466462#4" to="1028466465" fromLane="0" toLane="0"/>
    <connection from="-1028466462#4" to="1028466462#4" fromLane="0" toLane="0"/>

    <connection from="-1028466463" to="1028466462#2" fromLane="0" toLane="0"/>
    <connection from="-1028466463" to="-1028466462#1" fromLane="0" toLane="0"/>
    <connection from="-1028466463" to="1028466463" fromLane="0" toLane="0"/>

    <connection from="-1028466464" to="1028466462#3" fromLane="0" toLane="0"/>
    <connection from="-1028466464" to="-1028466462#2" fromLane="0" toLane="0"/>
    <connection from="-1028466464" to="1028466464" fromLane="0" toLane="0"/>

    <connection from="-1028466465" to="1028466462#4" fromLane="0" toLane="0"/>
    <connection from="-1028466465" to="-1028466462#3" fromLane="0" toLane="0"/>
    <connection from="-1028466465" to="1028466465" fromLane="0" toLane="0"/>

    <connection from="-1030076337" to="-129534040#0" fromLane="0" toLane="0"/>
    <connection from="-1030076337" to="455390536#0" fromLane="0" toLane="0"/>
    <connection from="-1030076337" to="129534040#1" fromLane="0" toLane="0"/>

    <connection from="-1043477704" to="-1114959962#1" fromLane="0" toLane="0"/>
    <connection from="-1043477704" to="1114959962#2" fromLane="0" toLane="0"/>
    <connection from="-1043477704" to="1043477704" fromLane="0" toLane="0"/>

    <connection from="-1060020740#0" to="1060020740#0" fromLane="0" toLane="0"/>

    <connection from="-1060020740#1" to="216544802#1" fromLane="0" toLane="0"/>
    <connection from="-1060020740#1" to="-1060020740#0" fromLane="0" toLane="0"/>
    <connection from="-1060020740#1" to="1060020740#1" fromLane="0" toLane="0"/>

    <connection from="-1065859940" to="400735559#1" fromLane="0" toLane="0"/>
    <connection from="-1065859940" to="-400735559#0" fromLane="0" toLane="0"/>
    <connection from="-1065859940" to="1065859940" fromLane="0" toLane="0"/>

    <connection from="-1066911907" to="-214485677" fromLane="0" toLane="0"/>
    <connection from="-1066911907" to="214485667#0" fromLane="0" toLane="0"/>
    <connection from="-1066911907" to="-214485664" fromLane="0" toLane="0"/>
    <connection from="-1066911907" to="1066911907" fromLane="0" toLane="0"/>

    <connection from="-1076006409" to="1076006409" fromLane="0" toLane="0"/>

    <connection from="-1076006410#0" to="75088334#3" fromLane="0" toLane="0"/>
    <connection from="-1076006410#0" to="-75088334#2" fromLane="0" toLane="0"/>
    <connection from="-1076006410#0" to="1076006410#0" fromLane="0" toLane="0"/>

    <connection from="-1076006410#1" to="-832283643#1" fromLane="0" toLane="0"/>
    <connection from="-1076006410#1" to="-1076006410#0" fromLane="0" toLane="0"/>
    <connection from="-1076006410#1" to="832283643#2" fromLane="0" toLane="0"/>
    <connection from="-1076006410#1" to="1076006410#1" fromLane="0" toLane="0"/>

    <connection from="-1076006410#2" to="-437679496#2" fromLane="0" toLane="0"/>
    <connection from="-1076006410#2" to="-1076006410#1" fromLane="0" toLane="0"/>
    <connection from="-1076006410#2" to="437679496#3" fromLane="0" toLane="0"/>
    <connection from="-1076006410#2" to="1076006410#2" fromLane="0" toLane="0"/>

    <connection from="-1076006436#0" to="-832283642#3" fromLane="0" toLane="0"/>
    <connection from="-1076006436#0" to="-1290739473" fromLane="0" toLane="0"/>
    <connection from="-1076006436#0" to="437679496#0" fromLane="0" toLane="0"/>
    <connection from="-1076006436#0" to="832283634#0" fromLane="0" toLane="0"/>
    <connection from="-1076006436#0" to="-832283640#2" fromLane="0" toLane="0"/>
    <connection from="-1076006436#0" to="1076006436#0" fromLane="0" toLane="0"/>

    <connection from="-1076006436#1" to="832283642#2" fromLane="0" toLane="0"/>
    <connection from="-1076006436#1" to="-1076006436#0" fromLane="0" toLane="0"/>
    <connection from="-1076006436#1" to="-832283642#1" fromLane="0" toLane="0"/>
    <connection from="-1076006436#1" to="1076006436#1" fromLane="0" toLane="0"/>

    <connection from="-1076006437" to="1076006438#1" fromLane="0" toLane="0"/>
    <connection from="-1076006437" to="-1076006438#0" fromLane="0" toLane="0"/>
    <connection from="-1076006437" to="1076006437" fromLane="0" toLane="0"/>

    <connection from="-1076006438#0" to="-832283631#0" fromLane="0" toLane="0"/>
    <connection from="-1076006438#0" to="-1290739481" fromLane="0" toLane="0"/>
    <connection from="-1076006438#0" to="832283631#1" fromLane="0" toLane="0"/>
    <connection from="-1076006438#0" to="1076006438#0" fromLane="0" toLane="0"/>

    <connection from="-1076006438#1" to="-1076006438#0" fromLane="0" toLane="0"/>
    <connection from="-1076006438#1" to="1076006437" fromLane="0" toLane="0"/>
    <connection from="-1076006438#1" to="1076006438#1" fromLane="0" toLane="0"/>

    <connection from="-1076006439#0" to="-832283631#2" fromLane="0" toLane="0"/>
    <connection from="-1076006439#0" to="832283631#3" fromLane="0" toLane="0"/>
    <connection from="-1076006439#0" to="1076006439#0" fromLane="0" toLane="0"/>

    <connection from="-1076006439#1" to="-1290739480" fromLane="0" toLane="0"/>
    <connection from="-1076006439#1" to="-1076006439#0" fromLane="0" toLane="0"/>
    <connection from="-1076006439#1" to="1076006439#1" fromLane="0" toLane="0"/>

    <connection from="-1076006440#0" to="-1076006446#4" fromLane="0" toLane="0"/>
    <connection from="-1076006440#0" to="1076006446#5" fromLane="0" toLane="0"/>
    <connection from="-1076006440#0" to="1076006440#0" fromLane="0" toLane="0"/>

    <connection from="-1076006440#1" to="832283640#2" fromLane="0" toLane="0"/>
    <connection from="-1076006440#1" to="-1076006440#0" fromLane="0" toLane="0"/>
    <connection from="-1076006440#1" to="-832283640#1" fromLane="0" toLane="0"/>
    <connection from="-1076006440#1" to="1076006440#1" fromLane="0" toLane="0"/>

    <connection from="-1076006440#2" to="832283642#1" fromLane="0" toLane="0"/>
    <connection from="-1076006440#2" to="-1076006440#1" fromLane="0" toLane="0"/>
    <connection from="-1076006440#2" to="-832283642#0" fromLane="0" toLane="0"/>
    <connection from="-1076006440#2" to="1076006440#2" fromLane="0" toLane="0"/>

    <connection from="-1076006440#3" to="-1076006436#1" fromLane="0" toLane="0"/>
    <connection from="-1076006440#3" to="-1076006440#2" fromLane="0" toLane="0"/>
    <connection from="-1076006440#3" to="1076006440#3" fromLane="0" toLane="0"/>

    <connection from="-1076006441#0" to="832283635#2" fromLane="0" toLane="0"/>
    <connection from="-1076006441#0" to="-832283635#1" fromLane="0" toLane="0"/>
    <connection from="-1076006441#0" to="1076006441#0" fromLane="0" toLane="0"/>

    <connection from="-1076006441#1" to="832283634#2" fromLane="0" toLane="0"/>
    <connection from="-1076006441#1" to="-1076006441#0" fromLane="0" toLane="0"/>
    <connection from="-1076006441#1" to="-832283634#1" fromLane="0" toLane="0"/>
    <connection from="-1076006441#1" to="1076006441#1" fromLane="0" toLane="0"/>

    <connection from="-1076006446#0" to="-1076006447#1" fromLane="0" toLane="0"/>
    <connection from="-1076006446#0" to="1076006447#2" fromLane="0" toLane="0"/>
    <connection from="-1076006446#0" to="1076006446#0" fromLane="0" toLane="0"/>

    <connection from="-1076006446#1" to="-1076006447#0" fromLane="0" toLane="0"/>
    <connection from="-1076006446#1" to="1076006447#1" fromLane="0" toLane="0"/>
    <connection from="-1076006446#1" to="-1076006446#0" fromLane="0" toLane="0"/>
    <connection from="-1076006446#1" to="1076006446#1" fromLane="0" toLane="0"/>

    <connection from="-1076006446#2" to="832283635#1" fromLane="0" toLane="0"/>
    <connection from="-1076006446#2" to="-1076006446#1" fromLane="0" toLane="0"/>
    <connection from="-1076006446#2" to="-832283635#0" fromLane="0" toLane="0"/>
    <connection from="-1076006446#2" to="1076006446#2" fromLane="0" toLane="0"/>

    <connection from="-1076006446#3" to="-1076006446#2" fromLane="0" toLane="0"/>
    <connection from="-1076006446#3" to="-1076006446#5" fromLane="0" toLane="0"/>
    <connection from="-1076006446#3" to="1076006446#3" fromLane="0" toLane="0"/>

    <connection from="-1076006446#4" to="-832283634#0" fromLane="0" toLane="0"/>
    <connection from="-1076006446#4" to="832283634#1" fromLane="0" toLane="0"/>
    <connection from="-1076006446#4" to="-1076006446#3" fromLane="0" toLane="0"/>
    <connection from="-1076006446#4" to="1076006446#4" fromLane="0" toLane="0"/>

    <connection from="-1076006446#5" to="1076006440#0" fromLane="0" toLane="0"/>
    <connection from="-1076006446#5" to="-1076006446#4" fromLane="0" toLane="0"/>
    <connection from="-1076006446#5" to="1076006446#5" fromLane="0" toLane="0"/>

    <connection from="-1076006447#0" to="-832283635#2" fromLane="0" toLane="0"/>
    <connection from="-1076006447#0" to="832283635#3" fromLane="0" toLane="0"/>
    <connection from="-1076006447#0" to="1076006447#0" fromLane="0" toLane="0"/>

    <connection from="-1076006447#1" to="-1076006446#0" fromLane="0" toLane="0"/>
    <connection from="-1076006447#1" to="1076006446#1" fromLane="0" toLane="0"/>
    <connection from="-1076006447#1" to="-1076006447#0" fromLane="0" toLane="0"/>
    <connection from="-1076006447#1" to="1076006447#1" fromLane="0" toLane="0"/>

    <connection from="-1076006447#2" to="1076006446#0" fromLane="0" toLane="0"/>
    <connection from="-1076006447#2" to="-1076006447#1" fromLane="0" toLane="0"/>
    <connection from="-1076006447#2" to="1076006447#2" fromLane="0" toLane="0"/>

    <connection from="-1076006448" to="437857811#2" fromLane="0" toLane="0"/>
    <connection from="-1076006448" to="-437857811#1" fromLane="0" toLane="0"/>
    <connection from="-1076006448" to="1076006448" fromLane="0" toLane="0"/>

    <connection from="-1076006449" to="72457302#2" fromLane="0" toLane="0"/>
    <connection from="-1076006449" to="-72457302#1" fromLane="0" toLane="0"/>
    <connection from="-1076006449" to="1076006449" fromLane="0" toLane="0"/>

    <connection from="-1076006450#0" to="-302590185#3" fromLane="0" toLane="0"/>
    <connection from="-1076006450#0" to="302590185#4" fromLane="0" toLane="0"/>
    <connection from="-1076006450#0" to="1076006450#0" fromLane="0" toLane="0"/>

    <connection from="-1076006450#1" to="-455390531#3" fromLane="0" toLane="0"/>
    <connection from="-1076006450#1" to="-1076006450#0" fromLane="0" toLane="0"/>
    <connection from="-1076006450#1" to="455390531#4" fromLane="0" toLane="0"/>
    <connection from="-1076006450#1" to="1076006450#1" fromLane="0" toLane="0"/>

    <connection from="-1076006451#0" to="302590183#3" fromLane="0" toLane="0"/>
    <connection from="-1076006451#0" to="-302590183#2" fromLane="0" toLane="0"/>
    <connection from="-1076006451#0" to="1076006451#0" fromLane="0" toLane="0"/>

    <connection from="-1076006451#1" to="455390531#3" fromLane="0" toLane="0"/>
    <connection from="-1076006451#1" to="-1076006451#0" fromLane="0" toLane="0"/>
    <connection from="-1076006451#1" to="-455390531#2" fromLane="0" toLane="0"/>
    <connection from="-1076006451#1" to="1076006451#1" fromLane="0" toLane="0"/>

    <connection from="-107880257" to="405394468#0" fromLane="0" toLane="0"/>
    <connection from="-107880257" to="417977009#0" fromLane="0" toLane="0"/>
    <connection from="-107880257" to="-417979899#1" fromLane="0" toLane="0"/>
    <connection from="-107880257" to="107880257" fromLane="0" toLane="0"/>

    <connection from="-108010123" to="108010123" fromLane="0" toLane="0"/>

    <connection from="-108010125" to="488027550" fromLane="0" toLane="0"/>
    <connection from="-108010125" to="-370400988#2" fromLane="0" toLane="0"/>
    <connection from="-108010125" to="74705881" fromLane="0" toLane="0"/>

    <connection from="-108010127#0" to="108010127#0" fromLane="0" toLane="0"/>

    <connection from="-108010127#1" to="440711819#2" fromLane="0" toLane="0"/>
    <connection from="-108010127#1" to="-108010127#0" fromLane="0" toLane="0"/>
    <connection from="-108010127#1" to="-440711819#1" fromLane="0" toLane="0"/>
    <connection from="-108010127#1" to="108010127#1" fromLane="0" toLane="0"/>

    <connection from="-108010127#2" to="-60094103#3" fromLane="0" toLane="0"/>
    <connection from="-108010127#2" to="-108010127#1" fromLane="0" toLane="0"/>
    <connection from="-108010127#2" to="108010127#2" fromLane="0" toLane="0"/>

    <connection from="-108010131" to="60094091#1" fromLane="0" toLane="0"/>
    <connection from="-108010131" to="108010131" fromLane="0" toLane="0"/>

    <connection from="-108010135#0" to="-60094104#0" fromLane="0" toLane="0"/>
    <connection from="-108010135#0" to="60094104#1" fromLane="0" toLane="0"/>
    <connection from="-108010135#0" to="108010135#0" fromLane="0" toLane="0"/>

    <connection from="-108010135#1" to="75441708" fromLane="0" toLane="0"/>
    <connection from="-108010135#1" to="-108010135#0" fromLane="0" toLane="0"/>
    <connection from="-108010135#1" to="108010135#1" fromLane="0" toLane="0"/>

    <connection from="-108010135#2" to="-439930692" fromLane="0" toLane="0"/>
    <connection from="-108010135#2" to="-108010135#1" fromLane="0" toLane="0"/>

    <connection from="-108010135#3" to="-108010135#2" fromLane="0" toLane="0"/>
    <connection from="-108010135#3" to="-265256681#2" fromLane="0" toLane="0"/>

    <connection from="-108010135#4" to="-873044134" fromLane="0" toLane="0"/>
    <connection from="-108010135#4" to="-108010135#3" fromLane="0" toLane="0"/>

    <connection from="-1090242461" to="130922195#2" fromLane="0" toLane="0"/>
    <connection from="-1090242461" to="-130922195#1" fromLane="0" toLane="0"/>
    <connection from="-1090242461" to="1090242461" fromLane="0" toLane="0"/>

    <connection from="-1090248718" to="1090248718" fromLane="0" toLane="0"/>

    <connection from="-1090264865" to="1090264866#1" fromLane="0" toLane="0"/>
    <connection from="-1090264865" to="-1090264866#0" fromLane="0" toLane="0"/>
    <connection from="-1090264865" to="1090264865" fromLane="0" toLane="0"/>

    <connection from="-1090264866#0" to="234992242#2" fromLane="0" toLane="0"/>
    <connection from="-1090264866#0" to="-234992242#1" fromLane="0" toLane="0"/>
    <connection from="-1090264866#0" to="1090264866#0" fromLane="0" toLane="0"/>

    <connection from="-1090264866#1" to="-1090264866#0" fromLane="0" toLane="0"/>
    <connection from="-1090264866#1" to="1090264865" fromLane="0" toLane="0"/>
    <connection from="-1090264866#1" to="1090264866#1" fromLane="0" toLane="0"/>

    <connection from="-1090264888" to="1090264889#1" fromLane="0" toLane="0"/>
    <connection from="-1090264888" to="-1090264889#0" fromLane="0" toLane="0"/>