<?xml version="1.0" encoding="UTF-8"?>

<!-- generated on 2025-04-08 13:40:45 by Eclipse SUMO netconvert Version 1.19.0
<configuration xmlns:xsi="http://www.w3.org/2001/XMLSchema-instance" xsi:noNamespaceSchemaLocation="http://sumo.dlr.de/xsd/netconvertConfiguration.xsd">

    <input>
        <sumo-net-file value="rambouillet/rambouillet.net.xml"/>
    </input>

    <output>
        <plain-output-prefix value="rambouillet/rambouillet"/>
    </output>

    <processing>
        <geometry.min-radius.fix.railways value="false"/>
        <geometry.max-grade.fix value="false"/>
        <offset.disable-normalization value="true"/>
        <lefthand value="0"/>
    </processing>

    <tls_building>
        <tls.ignore-internal-junction-jam value="1"/>
    </tls_building>

    <junctions>
        <no-turnarounds value="true"/>
        <junctions.corner-detail value="5"/>
        <junctions.limit-turn-speed value="5.50"/>
        <rectangular-lane-cut value="0"/>
    </junctions>

    <pedestrian>
        <walkingareas value="0"/>
    </pedestrian>

</configuration>
-->

<nodes version="1.16" xmlns:xsi="http://www.w3.org/2001/XMLSchema-instance" xsi:noNamespaceSchemaLocation="http://sumo.dlr.de/xsd/nodes_file.xsd">
    <location netOffset="-408599.72,-5382891.46" convBoundary="0.00,0.00,12418.10,10087.37" origBoundary="1.758892,48.593008,1.928344,48.684126" projParameter="+proj=utm +zone=31 +ellps=WGS84 +datum=WGS84 +units=m +no_defs"/>

    <node id="10039090221" x="2610.07" y="5252.90" type="priority"/>
    <node id="10039090225" x="2453.25" y="5372.78" type="priority"/>
    <node id="10039090229" x="2556.45" y="5219.18" type="priority"/>
    <node id="10039090230" x="2543.60" y="5156.35" type="priority"/>
    <node id="10039090232" x="2580.30" y="5202.15" type="priority"/>
    <node id="10039090346" x="2595.02" y="5275.01" type="priority"/>
    <node id="10039090347" x="2566.62" y="5224.57" type="priority"/>
    <node id="10039090349" x="2776.83" y="5330.72" type="priority"/>
    <node id="10039090357" x="2804.58" y="5269.96" type="priority"/>
    <node id="10039090367" x="2702.13" y="5376.53" type="priority"/>
    <node id="10039090374" x="2829.15" y="5397.87" type="priority"/>
    <node id="10094657887" x="5055.36" y="3441.98" type="priority"/>
    <node id="10098343461" x="4365.98" y="6365.60" type="dead_end"/>
    <node id="10098343465" x="4348.89" y="6371.82" type="dead_end"/>
    <node id="10098343466" x="4330.55" y="6378.03" type="priority"/>
    <node id="10118571203" x="6501.78" y="5785.90" type="right_before_left"/>
    <node id="10118571205" x="6488.34" y="5767.09" type="priority"/>
    <node id="10118571209" x="6406.07" y="5799.68" type="right_before_left"/>
    <node id="10118571210" x="6498.73" y="5784.04" type="right_before_left"/>
    <node id="10130645100" x="5134.68" y="5455.43" type="priority"/>
    <node id="10130645103" x="5136.89" y="5502.46" type="priority"/>
    <node id="10130645104" x="5081.57" y="5406.88" type="priority"/>
    <node id="10130645108" x="5116.62" y="5501.91" type="priority"/>
    <node id="10130645114" x="5314.06" y="5617.66" type="dead_end"/>
    <node id="10130702421" x="5365.05" y="5623.90" type="dead_end"/>
    <node id="10130702422" x="5373.75" y="5614.20" type="dead_end"/>
    <node id="10130702425" x="5357.85" y="5618.13" type="dead_end"/>
    <node id="10130702440" x="5269.38" y="5671.19" type="dead_end"/>
    <node id="10130702442" x="5254.95" y="5664.58" type="dead_end"/>
    <node id="10130702443" x="5263.67" y="5666.89" type="priority"/>
    <node id="10130702447" x="5260.79" y="5714.77" type="dead_end"/>
    <node id="10130702459" x="5277.61" y="5685.35" type="dead_end"/>
    <node id="10130702487" x="5403.25" y="5605.10" type="dead_end"/>
    <node id="10130702488" x="5367.31" y="5565.09" type="dead_end"/>
    <node id="10130702494" x="5394.68" y="5597.72" type="dead_end"/>
    <node id="10130702519" x="5398.07" y="5613.25" type="dead_end"/>
    <node id="10130702522" x="5406.86" y="5601.24" type="dead_end"/>
    <node id="10130702531" x="5315.30" y="5522.73" type="priority"/>
    <node id="10130702532" x="5317.59" y="5533.12" type="dead_end"/>
    <node id="10130702533" x="5314.43" y="5529.47" type="dead_end"/>
    <node id="10130702555" x="5603.66" y="5695.08" type="priority"/>
    <node id="10130702556" x="5594.44" y="5696.52" type="dead_end"/>
    <node id="10130702558" x="5600.14" y="5671.56" type="priority"/>
    <node id="10130702559" x="5590.28" y="5673.33" type="dead_end"/>
    <node id="10130702561" x="5581.78" y="5672.71" type="priority"/>
    <node id="10130702576" x="5268.51" y="5583.08" type="priority"/>
    <node id="10130702578" x="5319.90" y="5623.31" type="dead_end"/>
    <node id="10130702582" x="5308.28" y="5635.61" type="dead_end"/>
    <node id="10130702595" x="5300.16" y="5671.02" type="right_before_left"/>
    <node id="10130702604" x="5320.89" y="5641.58" type="dead_end"/>
    <node id="10130702608" x="5324.37" y="5636.74" type="dead_end"/>
    <node id="10130702639" x="5352.10" y="5629.13" type="dead_end"/>
    <node id="10130702667" x="5366.15" y="5622.65" type="dead_end"/>
    <node id="10130702668" x="5366.71" y="5622.05" type="dead_end"/>
    <node id="10130702680" x="5364.00" y="5640.05" type="dead_end"/>
    <node id="10130702685" x="5356.60" y="5611.89" type="rail_crossing"/>
    <node id="10130702686" x="5347.65" y="5622.00" type="priority"/>
    <node id="10130702688" x="5401.88" y="5636.33" type="dead_end"/>
    <node id="10130702700" x="5384.27" y="5642.04" type="dead_end"/>
    <node id="10130702701" x="5396.12" y="5652.22" type="dead_end"/>
    <node id="10130702702" x="5386.33" y="5643.81" type="dead_end"/>
    <node id="10130702724" x="5368.48" y="5627.03" type="dead_end"/>
    <node id="10130702744" x="5374.55" y="5614.78" type="dead_end"/>
    <node id="10130702746" x="5353.74" y="5625.86" type="dead_end"/>
    <node id="10130702748" x="5352.98" y="5629.94" type="dead_end"/>
    <node id="10130702752" x="5360.41" y="5640.62" type="dead_end"/>
    <node id="10130702761" x="5400.08" y="5634.71" type="dead_end"/>
    <node id="10137687986" x="4965.11" y="4017.26" type="priority"/>
    <node id="10137687987" x="4951.11" y="4029.81" type="priority"/>
    <node id="10137687996" x="5021.13" y="4084.45" type="priority"/>
    <node id="10171829399" x="4793.57" y="6330.07" type="priority"/>
    <node id="10171829400" x="4618.58" y="6486.94" type="priority"/>
    <node id="10173547373" x="5184.36" y="5425.47" type="priority"/>
    <node id="10173984360" x="5772.90" y="8080.64" type="priority"/>
    <node id="10174275753" x="5265.05" y="5902.36" type="right_before_left"/>
    <node id="10197520980" x="4244.92" y="5064.43" type="right_before_left"/>
    <node id="10197520981" x="4237.57" y="5076.03" type="right_before_left"/>
    <node id="10197546010" x="4446.22" y="5979.50" type="priority"/>
    <node id="10197556417" x="4483.63" y="6685.12" type="priority"/>
    <node id="10197556420" x="4455.62" y="6686.76" type="priority"/>
    <node id="10204967710" x="7626.59" y="6080.15" type="priority"/>
    <node id="10204967747" x="7228.65" y="6397.58" type="priority"/>
    <node id="10204973998" x="7235.56" y="6156.33" type="dead_end"/>
    <node id="10204973999" x="7207.69" y="6155.48" type="dead_end"/>
    <node id="10204974000" x="7178.08" y="6153.80" type="dead_end"/>
    <node id="10204974005" x="7178.94" y="6133.51" type="dead_end"/>
    <node id="10204974006" x="7235.72" y="6159.67" type="dead_end"/>
    <node id="10204974007" x="7234.58" y="6137.47" type="dead_end"/>
    <node id="10207025568" x="8049.78" y="6394.40" type="dead_end"/>
    <node id="10207025768" x="8065.06" y="6395.29" type="dead_end"/>
    <node id="10207025769" x="8062.24" y="6400.92" type="dead_end"/>
    <node id="10207025770" x="8074.79" y="6399.81" type="dead_end"/>
    <node id="10207025772" x="8077.96" y="6379.09" type="dead_end"/>
    <node id="10207025773" x="8077.36" y="6394.38" type="dead_end"/>
    <node id="10207025774" x="8071.43" y="6391.56" type="dead_end"/>
    <node id="10207025775" x="8053.19" y="6389.77" type="dead_end"/>
    <node id="10207025777" x="8051.73" y="6382.68" type="dead_end"/>
    <node id="10207025781" x="8060.26" y="6364.64" type="dead_end"/>
    <node id="10207025784" x="8117.46" y="6509.19" type="priority"/>
    <node id="10207025792" x="8119.16" y="6482.73" type="dead_end"/>
    <node id="10207025793" x="8116.32" y="6534.90" type="dead_end"/>
    <node id="10207025795" x="8123.79" y="6535.72" type="dead_end"/>
    <node id="10207025796" x="8108.73" y="6533.01" type="dead_end"/>
    <node id="10219456751" x="6934.90" y="6320.77" type="priority"/>
    <node id="10219471981" x="5351.06" y="6665.11" type="priority"/>
    <node id="10266963069" x="2571.18" y="5049.03" type="priority"/>
    <node id="10266963071" x="2559.94" y="5036.80" type="priority"/>
    <node id="10308360293" x="5174.12" y="4031.58" type="priority"/>
    <node id="10308360294" x="5216.43" y="4011.18" type="priority"/>
    <node id="10308360295" x="5196.15" y="4011.73" type="right_before_left"/>
    <node id="10543065167" x="7683.72" y="6539.25" type="priority"/>
    <node id="10543065168" x="7700.04" y="6530.83" type="priority"/>
    <node id="105466098" x="5804.60" y="6038.78" type="priority"/>
    <node id="105469845" x="5222.02" y="3693.31" type="priority"/>
    <node id="105469850" x="6248.14" y="6062.63" type="priority"/>
    <node id="10591405536" x="4320.45" y="6389.88" type="dead_end"/>
    <node id="10591405537" x="4323.61" y="6375.68" type="dead_end"/>
    <node id="10599345364" x="6578.33" y="6086.81" type="priority"/>
    <node id="1076908131" x="6109.08" y="5710.19" type="priority"/>
    <node id="1076908134" x="5971.87" y="5572.73" type="priority"/>
    <node id="1076908135" x="5934.65" y="5617.75" type="priority"/>
    <node id="1076908145" x="5936.90" y="5619.52" type="priority"/>
    <node id="1076908153" x="5946.65" y="5599.51" type="priority"/>
    <node id="1077122687" x="4480.22" y="5812.39" type="priority"/>
    <node id="1077122690" x="4401.94" y="5821.02" type="right_before_left"/>
    <node id="1077122749" x="4450.61" y="5821.32" type="priority"/>
    <node id="1077122756" x="4465.72" y="5762.10" type="right_before_left"/>
    <node id="1077122758" x="4442.71" y="5793.61" type="priority"/>
    <node id="1077122785" x="4403.11" y="5804.05" type="right_before_left"/>
    <node id="1077122787" x="4400.84" y="5836.82" type="priority"/>
    <node id="1077122830" x="4447.00" y="5808.01" type="priority"/>
    <node id="1077129224" x="4496.28" y="5830.25" type="priority"/>
    <node id="1077200135" x="4224.00" y="5868.80" type="dead_end"/>
    <node id="1077200165" x="4175.69" y="5873.73" type="dead_end"/>
    <node id="1077200197" x="4147.96" y="5835.35" type="dead_end"/>
    <node id="1077200206" x="4128.90" y="5946.35" type="dead_end"/>
    <node id="1077200302" x="4460.52" y="5763.54" type="priority"/>
    <node id="1077200323" x="4289.33" y="5792.69" type="dead_end"/>
    <node id="1077200328" x="4150.88" y="5957.07" type="dead_end"/>
    <node id="1077200335" x="4242.96" y="5819.23" type="dead_end"/>
    <node id="1077200356" x="4158.33" y="5849.37" type="dead_end"/>
    <node id="1077200369" x="4462.43" y="5724.78" type="dead_end"/>
    <node id="1077200408" x="4260.84" y="5753.53" type="dead_end"/>
    <node id="1077200449" x="4281.76" y="5872.62" type="dead_end"/>
    <node id="1077200516" x="4081.21" y="5884.72" type="dead_end"/>
    <node id="1077200677" x="4091.42" y="5898.47" type="dead_end"/>
    <node id="1077224153" x="4263.25" y="5811.72" type="dead_end"/>
    <node id="1077224160" x="4190.86" y="5985.48" type="dead_end"/>
    <node id="1077224166" x="4258.85" y="5839.68" type="dead_end"/>
    <node id="1077224169" x="4228.00" y="5797.74" type="dead_end"/>
    <node id="1077224175" x="4233.89" y="6078.46" type="dead_end"/>
    <node id="1077224178" x="4322.58" y="5768.32" type="dead_end"/>
    <node id="1077224182" x="4284.87" y="6130.53" type="priority"/>
    <node id="1077224196" x="4295.12" y="5727.92" type="dead_end"/>
    <node id="1077224212" x="4804.90" y="6051.98" type="right_before_left"/>
    <node id="1077224218" x="4682.81" y="6054.14" type="priority"/>
    <node id="1077224227" x="4305.84" y="5719.48" type="dead_end"/>
    <node id="1077224243" x="4770.92" y="5988.03" type="priority"/>
    <node id="1077224250" x="4164.49" y="5978.20" type="dead_end"/>
    <node id="1077224252" x="4110.00" y="5923.03" type="dead_end"/>
    <node id="1077224260" x="4351.07" y="5807.18" type="dead_end"/>
    <node id="1077224275" x="4957.37" y="5898.38" type="priority"/>
    <node id="1077224277" x="4252.20" y="5992.01" type="dead_end"/>
    <node id="1077224287" x="4218.33" y="5784.18" type="dead_end"/>
    <node id="1077224310" x="4838.63" y="6018.47" type="priority"/>
    <node id="1077224311" x="4263.42" y="5836.09" type="dead_end"/>
    <node id="1077224335" x="4325.83" y="5860.96" type="priority"/>
    <node id="1077224344" x="4263.15" y="5845.27" type="dead_end"/>
    <node id="1077224360" x="4192.97" y="5893.93" type="dead_end"/>
    <node id="1077224367" x="4190.90" y="5965.65" type="dead_end"/>
    <node id="1077224387" x="4808.04" y="5968.40" type="right_before_left"/>
    <node id="1077227591" x="5278.47" y="6160.69" type="right_before_left"/>
    <node id="1077227593" x="5229.14" y="6126.45" type="right_before_left"/>
    <node id="1077227599" x="5134.61" y="6048.75" type="priority"/>
    <node id="1077232750" x="5128.92" y="6506.22" type="priority"/>
    <node id="1077232751" x="5120.12" y="6508.41" type="priority"/>
    <node id="1077232753" x="5128.82" y="6511.59" type="priority"/>
    <node id="1077367881" x="4714.83" y="5727.06" type="priority"/>
    <node id="1079503540" x="5170.50" y="4269.96" type="priority"/>
    <node id="1079503545" x="5174.55" y="4259.72" type="priority"/>
    <node id="1079503548" x="5184.43" y="4273.63" type="priority"/>
    <node id="1079503553" x="5186.95" y="4264.92" type="priority"/>
    <node id="1079605332" x="5825.73" y="5464.72" type="priority"/>
    <node id="1079605338" x="5984.57" y="5455.24" type="priority"/>
    <node id="1079605342" x="5370.93" y="4866.43" type="priority"/>
    <node id="1079605368" x="5261.94" y="5499.59" type="priority"/>
    <node id="1079605372" x="5820.20" y="5600.27" type="priority"/>
    <node id="1079605381" x="5385.55" y="4851.44" type="priority"/>
    <node id="1079639639" x="6007.95" y="5479.58" type="priority"/>
    <node id="10844187273" x="5613.25" y="4686.05" type="priority"/>
    <node id="10844213309" x="5716.64" y="5036.81" type="priority"/>
    <node id="10844213310" x="5717.94" y="5023.62" type="priority"/>
    <node id="10844213313" x="5729.63" y="5031.12" type="priority"/>
    <node id="10904623372" x="6355.71" y="3650.16" type="right_before_left"/>
    <node id="10904623373" x="6390.21" y="3683.91" type="right_before_left"/>
    <node id="11059915062" x="6955.55" y="5730.32" type="priority"/>
    <node id="11107405073" x="7126.45" y="6647.16" type="right_before_left"/>
    <node id="11107405074" x="7106.14" y="6637.96" type="priority"/>
    <node id="11107444518" x="6299.42" y="6374.01" type="priority"/>
    <node id="11210443587" x="5098.36" y="5137.42" type="right_before_left"/>
    <node id="11210443588" x="5121.50" y="5131.83" type="right_before_left"/>
    <node id="11210443589" x="5099.76" y="5143.38" type="right_before_left"/>
    <node id="11210443590" x="5122.50" y="5137.89" type="right_before_left"/>
    <node id="11210443591" x="5101.21" y="5149.61" type="right_before_left"/>
    <node id="11210443592" x="5064.96" y="5158.17" type="right_before_left"/>
    <node id="11210443593" x="5123.03" y="5144.46" type="right_before_left"/>
    <node id="11210443594" x="5102.54" y="5155.29" type="right_before_left"/>
    <node id="11210443595" x="5065.14" y="5164.31" type="right_before_left"/>
    <node id="11210443596" x="5123.39" y="5150.27" type="right_before_left"/>
    <node id="11210443597" x="5103.97" y="5161.37" type="right_before_left"/>
    <node id="11210443598" x="5120.84" y="5127.77" type="right_before_left"/>
    <node id="11210443600" x="5069.68" y="5144.34" type="right_before_left"/>
    <node id="11210443602" x="5064.73" y="5151.83" type="right_before_left"/>
    <node id="11210443605" x="5062.84" y="5115.31" type="right_before_left"/>
    <node id="11210443606" x="5086.50" y="5109.85" type="priority" fringe="inner">
        <param key="buffer_stop" value="true"/>
    </node>
    <node id="11210443607" x="5087.17" y="5089.47" type="right_before_left"/>
    <node id="11210443608" x="5111.88" y="5083.59" type="priority" fringe="inner">
        <param key="buffer_stop" value="true"/>
    </node>
    <node id="11210443609" x="5058.34" y="5096.02" type="right_before_left"/>
    <node id="11210443610" x="5081.80" y="5090.65" type="priority" fringe="inner">
        <param key="buffer_stop" value="true"/>
    </node>
    <node id="11210443611" x="5042.96" y="5030.01" type="right_before_left"/>
    <node id="11210443612" x="5066.25" y="5023.60" type="priority" fringe="inner">
        <param key="buffer_stop" value="true"/>
    </node>
    <node id="11210443613" x="5070.61" y="5018.51" type="right_before_left"/>
    <node id="11210443614" x="5099.34" y="5012.00" type="right_before_left"/>
    <node id="11210443615" x="5057.61" y="4962.81" type="right_before_left"/>
    <node id="11210443616" x="5028.87" y="4969.55" type="right_before_left"/>
    <node id="11210443617" x="5086.10" y="4956.14" type="right_before_left"/>
    <node id="11210443618" x="5109.16" y="5053.89" type="right_before_left"/>
    <node id="11210443619" x="5063.54" y="4988.21" type="right_before_left"/>
    <node id="11210443620" x="5034.79" y="4994.94" type="right_before_left"/>
    <node id="11210443622" x="5051.71" y="5067.55" type="right_before_left"/>
    <node id="11210443623" x="5053.46" y="4945.02" type="right_before_left"/>
    <node id="11210443624" x="5061.88" y="4981.08" type="right_before_left"/>
    <node id="11210443625" x="5033.16" y="4987.96" type="right_before_left"/>
    <node id="11210443629" x="5097.43" y="5133.43" type="right_before_left"/>
    <node id="11210443630" x="5068.69" y="5140.37" type="right_before_left"/>
    <node id="11210443632" x="5080.46" y="5060.71" type="right_before_left"/>
    <node id="11210452041" x="5144.38" y="5136.69" type="right_before_left"/>
    <node id="11210452042" x="5153.86" y="5175.91" type="priority" fringe="inner">
        <param key="buffer_stop" value="true"/>
    </node>
    <node id="11210452043" x="5208.12" y="5121.78" type="priority"/>
    <node id="11210452045" x="5134.42" y="5180.25" type="priority" fringe="inner">
        <param key="buffer_stop" value="true"/>
    </node>
    <node id="11225506668" x="6184.49" y="7091.04" type="priority"/>
    <node id="112264489#1-AddedOnRampNode" x="5261.09" y="2719.92" type="priority"/>
    <node id="11330645023" x="4816.60" y="3290.96" type="priority"/>
    <node id="11330645026" x="4776.35" y="3237.65" type="right_before_left"/>
    <node id="11330645030" x="4760.94" y="3280.56" type="priority"/>
    <node id="11330645046" x="4880.67" y="3222.98" type="priority"/>
    <node id="11330645049" x="4857.46" y="3355.78" type="right_before_left"/>
    <node id="11330645050" x="4857.44" y="3320.77" type="priority"/>
    <node id="11330645053" x="4921.08" y="3346.47" type="priority"/>
    <node id="11330645054" x="4843.13" y="3311.54" type="priority"/>
    <node id="11330645067" x="4732.83" y="3355.21" type="priority"/>
    <node id="11330645570" x="4791.47" y="3303.87" type="priority"/>
    <node id="11333376958" x="3155.27" y="5935.21" type="priority"/>
    <node id="11333376965" x="3149.51" y="5895.77" type="dead_end"/>
    <node id="11333376966" x="3160.86" y="5915.84" type="dead_end"/>
    <node id="11333387169" x="3133.53" y="5840.47" type="priority"/>
    <node id="11333387171" x="3147.52" y="5882.42" type="right_before_left"/>
    <node id="11333387172" x="3129.25" y="5885.93" type="dead_end"/>
    <node id="11333387174" x="3000.08" y="5688.12" type="priority"/>
    <node id="114232593#1-AddedOffRampNode" x="6071.46" y="5617.53" type="priority"/>
    <node id="114232593#1-AddedOnRampNode" x="5855.47" y="5089.42" type="priority"/>
    <node id="1151440826" x="5709.16" y="7914.27" type="priority"/>
    <node id="1151441139" x="5773.20" y="7973.82" type="dead_end"/>
    <node id="1151441219" x="4745.74" y="8513.95" type="priority"/>
    <node id="1151441346" x="4450.54" y="8083.82" type="priority"/>
    <node id="1151441409" x="5757.19" y="7916.23" type="priority"/>
    <node id="1151441433" x="5205.89" y="8212.52" type="right_before_left"/>
    <node id="1151441718" x="5753.87" y="7820.54" type="priority"/>
    <node id="1151441890" x="5574.78" y="7806.60" type="priority"/>
    <node id="1151441989" x="4969.16" y="7893.86" type="right_before_left"/>
    <node id="116616595-AddedOnRampNode" x="5249.06" y="3130.27" type="priority"/>
    <node id="11967540197" x="8375.29" y="3753.50" type="priority"/>
    <node id="11967540219" x="8297.81" y="3720.93" type="right_before_left"/>
    <node id="11967540232" x="8302.80" y="3717.11" type="right_before_left"/>
    <node id="11967540233" x="8241.80" y="3674.53" type="right_before_left"/>
    <node id="11967540235" x="8275.08" y="3733.50" type="right_before_left"/>
    <node id="11967540240" x="8323.14" y="3829.36" type="right_before_left"/>
    <node id="11968218261" x="8321.83" y="3559.55" type="right_before_left"/>
    <node id="11987219670" x="4602.25" y="6442.82" type="priority"/>
    <node id="11987219680" x="4612.35" y="6495.55" type="dead_end"/>
    <node id="11987219681" x="4616.57" y="6498.79" type="dead_end"/>
    <node id="11987219682" x="4624.60" y="6497.68" type="dead_end"/>
    <node id="11987219683" x="4640.17" y="6471.10" type="dead_end"/>
    <node id="11987219684" x="4634.55" y="6465.19" type="dead_end"/>
    <node id="11987219686" x="4617.92" y="6465.84" type="dead_end"/>
    <node id="11987219687" x="4615.03" y="6466.90" type="dead_end"/>
    <node id="11987219688" x="4619.17" y="6465.35" type="priority"/>
    <node id="11987219699" x="4611.75" y="6470.05" type="dead_end"/>
    <node id="11987230051" x="4871.17" y="6262.39" type="dead_end"/>
    <node id="11987230052" x="4873.90" y="6262.18" type="dead_end"/>
    <node id="11987230053" x="4880.69" y="6269.24" type="dead_end"/>
    <node id="11987230055" x="4872.44" y="6279.82" type="dead_end"/>
    <node id="11987230057" x="4868.58" y="6279.77" type="dead_end"/>
    <node id="11987230058" x="4800.25" y="6337.36" type="dead_end"/>
    <node id="11987230059" x="4767.26" y="6364.79" type="dead_end"/>
    <node id="11987230060" x="4709.26" y="6413.97" type="dead_end"/>
    <node id="11987230062" x="4863.08" y="6269.55" type="dead_end"/>
    <node id="11987230064" x="4862.18" y="6272.05" type="dead_end"/>
    <node id="11987230065" x="4757.32" y="6360.85" type="dead_end"/>
    <node id="11987230066" x="4702.87" y="6407.13" type="dead_end"/>
    <node id="11987693049" x="5271.57" y="5931.57" type="dead_end"/>
    <node id="11987693050" x="5275.28" y="5936.03" type="dead_end"/>
    <node id="11987693067" x="5258.18" y="5951.66" type="dead_end"/>
    <node id="11987705370" x="5261.44" y="5931.83" type="dead_end"/>
    <node id="11987705371" x="5250.85" y="5944.63" type="dead_end"/>
    <node id="11987705381" x="5124.82" y="6051.01" type="dead_end"/>
    <node id="11987705382" x="5130.80" y="6057.93" type="dead_end"/>
    <node id="11987705383" x="5137.43" y="6054.67" type="dead_end"/>
    <node id="11987705384" x="5143.22" y="6049.51" type="dead_end"/>
    <node id="11987705385" x="5138.86" y="6042.34" type="dead_end"/>
    <node id="11987705386" x="5143.50" y="6047.39" type="dead_end"/>
    <node id="11987705404" x="5008.02" y="6163.20" type="dead_end"/>
    <node id="11987705406" x="5008.68" y="6160.70" type="dead_end"/>
    <node id="11987705407" x="5002.61" y="6153.88" type="dead_end"/>
    <node id="11987705410" x="4996.48" y="6153.45" type="dead_end"/>
    <node id="11987705412" x="4997.23" y="6171.68" type="dead_end"/>
    <node id="11987705413" x="4989.46" y="6160.54" type="dead_end"/>
    <node id="11987705414" x="4990.02" y="6163.99" type="dead_end"/>
    <node id="11987904836" x="5262.77" y="5754.37" type="priority"/>
    <node id="11987904840" x="5266.50" y="5819.26" type="dead_end"/>
    <node id="11987904842" x="5251.35" y="5714.76" type="dead_end"/>
    <node id="11987904843" x="5256.61" y="5819.82" type="dead_end"/>
    <node id="11990993038" x="4825.26" y="6011.86" type="dead_end"/>
    <node id="11990993039" x="4838.44" y="6008.22" type="dead_end"/>
    <node id="11990993041" x="4843.20" y="6007.17" type="dead_end"/>
    <node id="11990993042" x="4849.83" y="6014.41" type="dead_end"/>
    <node id="11990993043" x="4850.17" y="6020.09" type="dead_end"/>
    <node id="11990993044" x="4842.78" y="6027.84" type="dead_end"/>
    <node id="11990993045" x="4912.44" y="5939.18" type="dead_end"/>
    <node id="11990993046" x="4918.20" y="5944.36" type="dead_end"/>
    <node id="11990993047" x="4963.84" y="5901.20" type="dead_end"/>
    <node id="11990993048" x="4959.39" y="5905.98" type="dead_end"/>
    <node id="11990993049" x="4956.27" y="5905.94" type="dead_end"/>
    <node id="11990993050" x="4950.61" y="5900.76" type="dead_end"/>
    <node id="11990993051" x="4957.52" y="5890.99" type="dead_end"/>
    <node id="11990993052" x="4951.41" y="5897.07" type="dead_end"/>
    <node id="11990993053" x="4960.73" y="5890.05" type="dead_end"/>
    <node id="11990993054" x="4965.99" y="5895.44" type="dead_end"/>
    <node id="11990993055" x="5091.77" y="5768.50" type="dead_end"/>
    <node id="11990993056" x="5085.57" y="5774.90" type="dead_end"/>
    <node id="11990993057" x="5092.06" y="5781.15" type="dead_end"/>
    <node id="11990993058" x="5097.60" y="5767.41" type="dead_end"/>
    <node id="11990993059" x="5102.08" y="5772.55" type="dead_end"/>
    <node id="11990993060" x="5140.13" y="5732.69" type="dead_end"/>
    <node id="11990993061" x="5145.35" y="5738.71" type="dead_end"/>
    <node id="11990993062" x="5204.65" y="5682.81" type="dead_end"/>
    <node id="11990993063" x="5209.44" y="5688.80" type="dead_end"/>
    <node id="12194289504" x="5045.19" y="3959.65" type="priority"/>
    <node id="12210481450" x="5411.95" y="6325.87" type="priority"/>
    <node id="12210481452" x="5397.47" y="6306.06" type="priority"/>
    <node id="12210481453" x="5419.33" y="6318.44" type="priority"/>
    <node id="12210481455" x="5400.84" y="6262.03" type="priority"/>
    <node id="12210481456" x="4954.36" y="6122.89" type="priority"/>
    <node id="12210481460" x="4982.54" y="6102.50" type="priority"/>
    <node id="12304596499" x="4569.42" y="6046.47" type="priority"/>
    <node id="12304629404" x="4657.05" y="6192.15" type="priority"/>
    <node id="12317445938" x="4987.67" y="3608.17" type="right_before_left"/>
    <node id="12330450893" x="6272.37" y="5644.42" type="right_before_left"/>
    <node id="12330450894" x="6273.01" y="5637.20" type="right_before_left"/>
    <node id="12330450900" x="6280.83" y="5637.24" type="priority"/>
    <node id="12330461901" x="6274.35" y="5595.08" type="priority"/>
    <node id="1238969783" x="1162.23" y="4712.82" type="priority"/>
    <node id="1238969805" x="5234.56" y="5663.64" type="traffic_light" tl="joinedS_1238969805_2258978080_2258978082_2258978088_#7more" controlledInner="577808463#1"/>
    <node id="1238969885" x="5264.42" y="5490.63" type="priority"/>
    <node id="1238969986" x="5255.22" y="5656.64" type="priority"/>
    <node id="1238969989" x="4225.99" y="4449.41" type="right_before_left"/>
    <node id="1240026960" x="7096.72" y="6787.31" type="priority"/>
    <node id="1240026970" x="8372.73" y="8443.35" type="priority"/>
    <node id="1240026974" x="8530.14" y="7872.80" type="priority"/>
    <node id="1240026989" x="8507.92" y="7872.10" type="priority"/>
    <node id="1240027002" x="8515.94" y="7876.72" type="priority"/>
    <node id="1240027006" x="7493.42" y="9766.81" type="priority"/>
    <node id="1240027014" x="8524.45" y="7860.04" type="priority"/>
    <node id="1240027028" x="6919.90" y="7961.76" type="right_before_left"/>
    <node id="1240027042" x="8985.90" y="6827.80" type="right_before_left"/>
    <node id="12563354882" x="4884.74" y="5387.74" type="priority"/>
    <node id="12580303041" x="5262.33" y="5714.77" type="dead_end"/>
    <node id="12580303076" x="5393.58" y="5595.70" type="priority"/>
    <node id="12580303077" x="5388.59" y="5590.36" type="priority"/>
    <node id="12580303078" x="5382.22" y="5583.89" type="priority"/>
    <node id="12580303079" x="5375.64" y="5578.00" type="priority"/>
    <node id="12580303080" x="5370.71" y="5572.41" type="priority"/>
    <node id="12580303081" x="5368.23" y="5567.34" type="priority"/>
    <node id="12580303083" x="5339.48" y="5617.54" type="dead_end"/>
    <node id="12580303095" x="6407.88" y="6880.41" type="priority"/>
    <node id="12580303096" x="6404.34" y="6879.62" type="priority"/>
    <node id="12580318202" x="6412.87" y="6872.71" type="priority"/>
    <node id="12580318235" x="6402.99" y="6870.73" type="priority"/>
    <node id="12580318236" x="6384.10" y="6883.04" type="priority"/>
    <node id="12580318240" x="6405.31" y="6868.28" type="priority"/>
    <node id="12580318246" x="6412.77" y="6874.56" type="priority"/>
    <node id="12592678594" x="5269.98" y="5691.13" type="right_before_left"/>
    <node id="12592678595" x="5203.55" y="5504.38" type="priority"/>
    <node id="12592731857" x="7092.02" y="5774.12" type="priority"/>
    <node id="12595651481" x="5739.63" y="5932.87" type="dead_end" fringe="inner">
        <param key="buffer_stop" value="true"/>
    </node>
    <node id="12595651492" x="5531.89" y="5732.16" type="priority"/>