<?xml version="1.0" encoding="UTF-8"?>

<!-- generated on 2025-04-08 13:40:46 by Eclipse SUMO netconvert Version 1.19.0
<configuration xmlns:xsi="http://www.w3.org/2001/XMLSchema-instance" xsi:noNamespaceSchemaLocation="http://sumo.dlr.de/xsd/netconvertConfiguration.xsd">

    <input>
        <sumo-net-file value="rambouillet/rambouillet.net.xml"/>
    </input>

    <output>
        <plain-output-prefix value="rambouillet/rambouillet"/>
    </output>

    <processing>
        <geometry.min-radius.fix.railways value="false"/>
        <geometry.max-grade.fix value="false"/>
        <offset.disable-normalization value="true"/>
        <lefthand value="0"/>
    </processing>

    <tls_building>
        <tls.ignore-internal-junction-jam value="1"/>
    </tls_building>

    <junctions>
        <no-turnarounds value="true"/>
        <junctions.corner-detail value="5"/>
        <junctions.limit-turn-speed value="5.50"/>
        <rectangular-lane-cut value="0"/>
    </junctions>

    <pedestrian>
        <walkingareas value="0"/>
    </pedestrian>

</configuration>
-->

<tlLogics version="1.16" xmlns:xsi="http://www.w3.org/2001/XMLSchema-instance" xsi:noNamespaceSchemaLocation="http://sumo.dlr.de/xsd/tllogic_file.xsd">
    <tlLogic id="1578574596" type="static" programID="0" offset="0">
        <phase duration="42" state="rrrrGGGggrrrrGGGgg"/>
        <phase duration="3"  state="rrrryyyyyrrrryyyyy"/>
        <phase duration="42" state="GGggrrrrrGGggrrrrr"/>
        <phase duration="3"  state="yyyyrrrrryyyyrrrrr"/>
    </tlLogic>
    <tlLogic id="2258978161" type="static" programID="0" offset="0">
        <phase duration="82" state="GG"/>
        <phase duration="3"  state="yy"/>
        <phase duration="5"  state="rr"/>
    </tlLogic>
    <tlLogic id="2258978168" type="static" programID="0" offset="0">
        <phase duration="82" state="GG"/>
        <phase duration="3"  state="yy"/>
        <phase duration="5"  state="rr"/>
    </tlLogic>
    <tlLogic id="2258978251" type="static" programID="0" offset="0">
        <phase duration="82" state="GGG"/>
        <phase duration="3"  state="yyy"/>
        <phase duration="5"  state="rrr"/>
    </tlLogic>
    <tlLogic id="2258978257" type="static" programID="0" offset="0">
        <phase duration="82" state="GG"/>
        <phase duration="3"  state="yy"/>
        <phase duration="5"  state="rr"/>
    </tlLogic>
    <tlLogic id="2258978264" type="static" programID="0" offset="0">
        <phase duration="82" state="GG"/>
        <phase duration="3"  state="yy"/>
        <phase duration="5"  state="rr"/>
    </tlLogic>
    <tlLogic id="2258978268" type="static" programID="0" offset="0">
        <phase duration="82" state="GG"/>
        <phase duration="3"  state="yy"/>
        <phase duration="5"  state="rr"/>
    </tlLogic>
    <tlLogic id="2259003896" type="static" programID="0" offset="0">
        <phase duration="82" state="GG"/>
        <phase duration="3"  state="yy"/>
        <phase duration="5"  state="rr"/>
    </tlLogic>
    <tlLogic id="2259003897" type="static" programID="0" offset="0">
        <phase duration="82" state="GG"/>
        <phase duration="3"  state="yy"/>
        <phase duration="5"  state="rr"/>
    </tlLogic>
    <tlLogic id="2259003898" type="static" programID="0" offset="0">
        <phase duration="82" state="GG"/>
        <phase duration="3"  state="yy"/>
        <phase duration="5"  state="rr"/>
    </tlLogic>
    <tlLogic id="2259003899" type="static" programID="0" offset="0">
        <phase duration="82" state="GG"/>
        <phase duration="3"  state="yy"/>
        <phase duration="5"  state="rr"/>
    </tlLogic>
    <tlLogic id="2259003900" type="static" programID="0" offset="0">
        <phase duration="82" state="GG"/>
        <phase duration="3"  state="yy"/>
        <phase duration="5"  state="rr"/>
    </tlLogic>
    <tlLogic id="2259003901" type="static" programID="0" offset="0">
        <phase duration="82" state="GG"/>
        <phase duration="3"  state="yy"/>
        <phase duration="5"  state="rr"/>
    </tlLogic>
    <tlLogic id="2259003902" type="static" programID="0" offset="0">
        <phase duration="82" state="GG"/>
        <phase duration="3"  state="yy"/>
        <phase duration="5"  state="rr"/>
    </tlLogic>
    <tlLogic id="275554581" type="static" programID="0" offset="0">
        <phase duration="82" state="GG"/>
        <phase duration="3"  state="yy"/>
        <phase duration="5"  state="rr"/>
    </tlLogic>
    <tlLogic id="GS_1588688247" type="static" programID="0" offset="0">
        <phase duration="42" state="GggrrrGGg"/>
        <phase duration="3"  state="yyyrrryyy"/>
        <phase duration="42" state="rrrGGgGrr"/>
        <phase duration="3"  state="rrryyyyrr"/>
    </tlLogic>
    <tlLogic id="joinedS_1238969805_2258978080_2258978082_2258978088_#7more" type="static" programID="0" offset="0">
        <phase duration="12" state="GGGGGGrrGGGGGGG"/>
        <phase duration="3"  state="yyyyyyrryyyyyyy"/>
        <phase duration="12" state="GGGGGGGgGrGGGGG"/>
        <phase duration="3"  state="yyyyyyyyyryyyyy"/>
        <phase duration="12" state="GGGGGGGgGrGGGGG"/>
        <phase duration="3"  state="yyyyyyyyyryyyyy"/>
        <phase duration="12" state="GGGGGGGgGrGGGGG"/>
        <phase duration="3"  state="yyyyyyyyyryyyyy"/>
        <phase duration="12" state="GGGGGGGgGrGGGGG"/>
        <phase duration="3"  state="yyyyyyyyyryyyyy"/>
        <phase duration="12" state="GGGGGGGgGrGGGGG"/>
        <phase duration="3"  state="yyyyyyyyyryyyyy"/>
    </tlLogic>
    <tlLogic id="joinedS_1595087270_2431031396" type="static" programID="0" offset="0">
        <phase duration="42" state="GGrrGGGrrr"/>
        <phase duration="3"  state="yyrryyyrrr"/>
        <phase duration="42" state="GrGgrrrGGG"/>
        <phase duration="3"  state="yryyrrryyy"/>
    </tlLogic>
    <tlLogic id="joinedS_275554596_3657478984_3657478996" type="static" programID="0" offset="0">
        <phase duration="15" state="GGGrrrrrrrr"/>
        <phase duration="3"  state="yyyrrrrrrrr"/>
        <phase duration="15" state="rrrGGGrrrrr"/>
        <phase duration="3"  state="rrryyyrrrrr"/>
        <phase duration="15" state="rrrrrrGGGrr"/>
        <phase duration="3"  state="rrrrrryyyrr"/>
        <phase duration="15" state="rrrrrrrrrGr"/>
        <phase duration="3"  state="rrrrrrrrryr"/>
        <phase duration="15" state="rrrrrrrrrrG"/>
        <phase duration="3"  state="rrrrrrrrrry"/>
    </tlLogic>

    <connection from="-1016248038" to="-75441706#0" fromLane="0" toLane="0" tl="2259003898" linkIndex="0"/>
    <connection from="-1112112382#2" to="-1112112382#0" fromLane="0" toLane="0" tl="2258978251" linkIndex="1"/>
    <connection from="-1112112382#2" to="-1112112382#0" fromLane="1" toLane="1" tl="2258978251" linkIndex="2"/>
    <connection from="-145459653#2" to="-751499372#2" fromLane="0" toLane="0" tl="GS_1588688247" linkIndex="6"/>
    <connection from="-145459653#2" to="-282479112#2" fromLane="0" toLane="0" tl="GS_1588688247" linkIndex="7"/>
    <connection from="-145459653#2" to="145459653#0" fromLane="0" toLane="0" tl="GS_1588688247" linkIndex="8"/>
    <connection from="-146232360#2" to="488027570" fromLane="0" toLane="0" tl="joinedS_1595087270_2431031396" linkIndex="2"/>
    <connection from="-146232360#2" to="146232360#0" fromLane="0" toLane="0" tl="joinedS_1595087270_2431031396" linkIndex="3"/>
    <connection from="-216544748#2" to="-216544748#1" fromLane="0" toLane="0" tl="joinedS_1238969805_2258978080_2258978082_2258978088_#7more" linkIndex="11"/>
    <connection from="-216544800#2" to="-216544800#0" fromLane="0" toLane="0" tl="2258978161" linkIndex="0"/>
    <connection from="-23027914#12" to="-23027914#11" fromLane="0" toLane="0" tl="2258978264" linkIndex="0"/>
    <connection from="-23027914#3" to="-23027914#0" fromLane="0" toLane="0" tl="2259003900" linkIndex="0"/>
    <connection from="-23027914#4" to="-23027914#3" fromLane="0" toLane="0" tl="2259003899" linkIndex="0"/>
    <connection from="-23027914#7" to="-23027914#5" fromLane="0" toLane="0" tl="2259003897" linkIndex="0"/>
    <connection from="-23027915#2" to="-23027915#1" fromLane="0" toLane="0" tl="2258978168" linkIndex="1"/>
    <connection from="-24388156#2" to="-24388156#0" fromLane="0" toLane="0" tl="2258978268" linkIndex="0"/>
    <connection from="-24388163#2" to="-24388163#0" fromLane="0" toLane="0" tl="joinedS_275554596_3657478984_3657478996" linkIndex="3"/>
    <connection from="-24388163#2" to="-92913457#2" fromLane="0" toLane="0" tl="joinedS_275554596_3657478984_3657478996" linkIndex="4"/>
    <connection from="-24388163#2" to="24388163#1" fromLane="0" toLane="0" tl="joinedS_275554596_3657478984_3657478996" linkIndex="5"/>
    <connection from="-357115284#2" to="-357115284#1" fromLane="0" toLane="0" tl="3624753820" linkIndex="1"/>
    <connection from="-357115284#3" to="-357115284#2" fromLane="0" toLane="0" tl="10130702685" linkIndex="1"/>
    <connection from="-357115284#4" to="-357115284#3" fromLane="0" toLane="0" tl="3624753825" linkIndex="1"/>
    <connection from="-40774356#2" to="-40774356#0" fromLane="0" toLane="0" tl="2258978257" linkIndex="0"/>
    <connection from="-42757289#0" to="-1016246308#0" fromLane="0" toLane="0" tl="2259003902" linkIndex="0"/>
    <connection from="-433012818#1" to="-433012818#0" fromLane="0" toLane="0" tl="4319337244" linkIndex="0"/>
    <connection from="-433012818#2" to="-433012818#1" fromLane="0" toLane="0" tl="4319337243" linkIndex="0"/>
    <connection from="-494237242#1" to="-488027543#5" fromLane="0" toLane="0" tl="1578574596" linkIndex="4"/>
    <connection from="-494237242#1" to="-867796075#1" fromLane="0" toLane="0" tl="1578574596" linkIndex="5"/>
    <connection from="-494237242#1" to="-867796075#1" fromLane="1" toLane="1" tl="1578574596" linkIndex="6"/>
    <connection from="-494237242#1" to="76593063#0" fromLane="1" toLane="0" tl="1578574596" linkIndex="7"/>
    <connection from="-494237242#1" to="494237242#0" fromLane="1" toLane="1" tl="1578574596" linkIndex="8"/>
    <connection from="-577806740" to="24388151#0" fromLane="0" toLane="0" tl="joinedS_1595087270_2431031396" linkIndex="7"/>
    <connection from="-577806740" to="577806739" fromLane="0" toLane="0" tl="joinedS_1595087270_2431031396" linkIndex="8"/>
    <connection from="-577806740" to="577806740" fromLane="0" toLane="0" tl="joinedS_1595087270_2431031396" linkIndex="9"/>
    <connection from="-679406692" to="-679406691" fromLane="0" toLane="0" tl="2258978160" linkIndex="0"/>
    <connection from="-707546918#6" to="-707546918#5" fromLane="0" toLane="0" tl="275554581" linkIndex="0"/>
    <connection from="-707546919#6" to="-707546919#5" fromLane="0" toLane="0" tl="2259003901" linkIndex="0"/>
    <connection from="-76593063#1" to="494237242#0" fromLane="0" toLane="0" tl="1578574596" linkIndex="9"/>
    <connection from="-76593063#1" to="-488027543#5" fromLane="0" toLane="0" tl="1578574596" linkIndex="10"/>
    <connection from="-76593063#1" to="-867796075#1" fromLane="0" toLane="1" tl="1578574596" linkIndex="11"/>
    <connection from="-76593063#1" to="76593063#0" fromLane="0" toLane="0" tl="1578574596" linkIndex="12"/>
    <connection from="-92911799#4" to="-92911799#3" fromLane="0" toLane="0" tl="2259003896" linkIndex="0"/>
    <connection from="1016246308#0" to="1016246308#1" fromLane="0" toLane="0" tl="2259003902" linkIndex="1"/>
    <connection from="1107140821" to="216544747#0" fromLane="0" toLane="0" tl="joinedS_1238969805_2258978080_2258978082_2258978088_#7more" linkIndex="3"/>
    <connection from="1112112382#0" to="1112112382#1" fromLane="0" toLane="0" tl="2258978251" linkIndex="0"/>
    <connection from="1359160807#0" to="1359160804" fromLane="0" toLane="0" tl="joinedS_1238969805_2258978080_2258978082_2258978088_#7more" linkIndex="14"/>
    <connection from="1359160808" to="-1014903996#1" fromLane="0" toLane="0" tl="joinedS_1238969805_2258978080_2258978082_2258978088_#7more" linkIndex="8"/>
    <connection from="1359160808" to="216544744" fromLane="0" toLane="0" tl="joinedS_1238969805_2258978080_2258978082_2258978088_#7more" linkIndex="9"/>
    <connection from="216544747#1" to="216544747#2" fromLane="0" toLane="0" tl="joinedS_1238969805_2258978080_2258978082_2258978088_#7more" linkIndex="13"/>
    <connection from="216544748#1" to="216544748#2" fromLane="0" toLane="0" tl="joinedS_1238969805_2258978080_2258978082_2258978088_#7more" linkIndex="10"/>
    <connection from="216544749#0" to="216544749#2" fromLane="0" toLane="0" tl="joinedS_1238969805_2258978080_2258978082_2258978088_#7more" linkIndex="4"/>
    <connection from="216544750#0" to="216544750#2" fromLane="0" toLane="0" tl="joinedS_1238969805_2258978080_2258978082_2258978088_#7more" linkIndex="5"/>
    <connection from="216544800#0" to="216544800#1" fromLane="0" toLane="0" tl="2258978161" linkIndex="1"/>
    <connection from="23027914#0" to="23027914#1" fromLane="0" toLane="0" tl="2259003900" linkIndex="1"/>
    <connection from="23027914#1" to="23027914#4" fromLane="0" toLane="0" tl="2259003899" linkIndex="1"/>
    <connection from="23027914#10" to="23027914#12" fromLane="0" toLane="0" tl="2258978264" linkIndex="1"/>
    <connection from="23027914#5" to="23027914#6" fromLane="0" toLane="0" tl="2259003897" linkIndex="1"/>
    <connection from="23027915#0" to="23027915#2" fromLane="0" toLane="0" tl="2258978168" linkIndex="0"/>
    <connection from="23027915#5" to="216544744" fromLane="0" toLane="0" tl="joinedS_1238969805_2258978080_2258978082_2258978088_#7more" linkIndex="6"/>
    <connection from="23027915#5" to="-1014903996#1" fromLane="0" toLane="0" tl="joinedS_1238969805_2258978080_2258978082_2258978088_#7more" linkIndex="7"/>
    <connection from="24388156#0" to="24388156#1" fromLane="0" toLane="0" tl="2258978268" linkIndex="1"/>
    <connection from="24388163#0" to="-92913457#2" fromLane="0" toLane="0" tl="joinedS_275554596_3657478984_3657478996" linkIndex="0"/>
    <connection from="24388163#0" to="24388163#1" fromLane="0" toLane="0" tl="joinedS_275554596_3657478984_3657478996" linkIndex="1"/>
    <connection from="24388163#0" to="-24388163#0" fromLane="0" toLane="0" tl="joinedS_275554596_3657478984_3657478996" linkIndex="2"/>
    <connection from="282479112#0" to="145459653#0" fromLane="0" toLane="0" tl="GS_1588688247" linkIndex="0"/>
    <connection from="282479112#0" to="-751499372#2" fromLane="0" toLane="0" tl="GS_1588688247" linkIndex="1"/>
    <connection from="282479112#0" to="-282479112#2" fromLane="0" toLane="0" tl="GS_1588688247" linkIndex="2"/>
    <connection from="357115284#1" to="357115284#2" fromLane="0" toLane="0" tl="3624753820" linkIndex="0"/>
    <connection from="357115284#2" to="357115284#3" fromLane="0" toLane="0" tl="10130702685" linkIndex="0"/>
    <connection from="357115284#3" to="357115284#4" fromLane="0" toLane="0" tl="3624753825" linkIndex="0"/>
    <connection from="361247626#0" to="361247626#2" fromLane="0" toLane="0" tl="joinedS_275554596_3657478984_3657478996" linkIndex="10"/>
    <connection from="361247628#0" to="361247628#1" fromLane="0" toLane="0" tl="joinedS_275554596_3657478984_3657478996" linkIndex="9"/>
    <connection from="40774356#0" to="40774356#1" fromLane="0" toLane="0" tl="2258978257" linkIndex="1"/>
    <connection from="417372636#0" to="417372636#1" fromLane="0" toLane="0" tl="4319337244" linkIndex="-1"/>
    <connection from="417372647#2" to="973670654#1" fromLane="0" toLane="0" tl="3624753825" linkIndex="-1"/>
    <connection from="417372649#1" to="417372649#2" fromLane="0" toLane="0" tl="4319337243" linkIndex="-1"/>
    <connection from="433012818#0" to="433012818#1" fromLane="0" toLane="0" tl="4319337244" linkIndex="1"/>
    <connection from="433012818#1" to="433012818#2" fromLane="0" toLane="0" tl="4319337243" linkIndex="1"/>
    <connection from="433012823#4" to="618908396#1" fromLane="0" toLane="0" tl="10130702685" linkIndex="-1"/>
    <connection from="433012830#0" to="433012830#1" fromLane="0" toLane="0" tl="2258978160" linkIndex="-1"/>
    <connection from="488027543#4" to="-867796075#1" fromLane="0" toLane="0" tl="1578574596" linkIndex="0"/>
    <connection from="488027543#4" to="76593063#0" fromLane="0" toLane="0" tl="1578574596" linkIndex="1"/>
    <connection from="488027543#4" to="494237242#0" fromLane="0" toLane="1" tl="1578574596" linkIndex="2"/>
    <connection from="488027543#4" to="-488027543#5" fromLane="0" toLane="0" tl="1578574596" linkIndex="3"/>
    <connection from="488027573#0" to="577806739" fromLane="0" toLane="0" tl="joinedS_1595087270_2431031396" linkIndex="4"/>
    <connection from="488027573#0" to="577806740" fromLane="1" toLane="0" tl="joinedS_1595087270_2431031396" linkIndex="5"/>
    <connection from="488027573#0" to="24388151#0" fromLane="2" toLane="0" tl="joinedS_1595087270_2431031396" linkIndex="6"/>
    <connection from="577806763#0" to="146232360#0" fromLane="0" toLane="0" tl="joinedS_1595087270_2431031396" linkIndex="0"/>
    <connection from="577806763#0" to="488027570" fromLane="1" toLane="0" tl="joinedS_1595087270_2431031396" linkIndex="1"/>
    <connection from="577808463#0" to="577808463#1" fromLane="0" toLane="0" tl="joinedS_1238969805_2258978080_2258978082_2258978088_#7more" linkIndex="12"/>
    <connection from="577808463#1" to="577808463#2" fromLane="0" toLane="0" tl="joinedS_1238969805_2258978080_2258978082_2258978088_#7more" linkIndex="1"/>
    <connection from="618908387#1" to="618908387#2" fromLane="0" toLane="0" tl="3624753820" linkIndex="-1"/>
    <connection from="679406691" to="679406692" fromLane="0" toLane="0" tl="2258978160" linkIndex="1"/>
    <connection from="707546918#4" to="707546918#6" fromLane="0" toLane="0" tl="275554581" linkIndex="1"/>
    <connection from="707546919#4" to="707546919#6" fromLane="0" toLane="0" tl="2259003901" linkIndex="1"/>
    <connection from="751499372#0" to="-282479112#2" fromLane="0" toLane="0" tl="GS_1588688247" linkIndex="3"/>
    <connection from="751499372#0" to="145459653#0" fromLane="0" toLane="0" tl="GS_1588688247" linkIndex="4"/>
    <connection from="751499372#0" to="-751499372#2" fromLane="0" toLane="0" tl="GS_1588688247" linkIndex="5"/>
    <connection from="75441706#0" to="75441706#1" fromLane="0" toLane="0" tl="2259003898" linkIndex="1"/>
    <connection from="867796075#0" to="76593063#0" fromLane="0" toLane="0" tl="1578574596" linkIndex="13"/>
    <connection from="867796075#0" to="494237242#0" fromLane="0" toLane="0" tl="1578574596" linkIndex="14"/>
    <connection from="867796075#0" to="494237242#0" fromLane="1" toLane="1" tl="1578574596" linkIndex="15"/>
    <connection from="867796075#0" to="-488027543#5" fromLane="1" toLane="0" tl="1578574596" linkIndex="16"/>
    <connection from="867796075#0" to="-867796075#1" fromLane="1" toLane="1" tl="1578574596" linkIndex="17"/>
    <connection from="92911799#2" to="92911799#4" fromLane="0" toLane="0" tl="2259003896" linkIndex="1"/>
    <connection from="92912943#10" to="1107140860" fromLane="0" toLane="0" tl="joinedS_1238969805_2258978080_2258978082_2258978088_#7more" linkIndex="0"/>
    <connection from="92913457#0" to="24388163#1" fromLane="0" toLane="0" tl="joinedS_275554596_3657478984_3657478996" linkIndex="6"/>
    <connection from="92913457#0" to="-24388163#0" fromLane="0" toLane="0" tl="joinedS_275554596_3657478984_3657478996" linkIndex="7"/>
    <connection from="92913457#0" to="-92913457#2" fromLane="0" toLane="0" tl="joinedS_275554596_3657478984_3657478996" linkIndex="8"/>
    <connection from="93128849" to="1107140862" fromLane="0" toLane="0" tl="joinedS_1238969805_2258978080_2258978082_2258978088_#7more" linkIndex="2"/>
</tlLogics>
