<edges xmlns:xsi="http://www.w3.org/2001/XMLSchema-instance" version="1.16" xsi:noNamespaceSchemaLocation="http://sumo.dlr.de/xsd/edges_file.xsd">
    <location netOffset="-408599.72,-5382891.46" convBoundary="0.00,0.00,12418.10,10087.37" origBoundary="1.758892,48.593008,1.928344,48.684126" projParameter="+proj=utm +zone=31 +ellps=WGS84 +datum=WGS84 +units=m +no_defs" />

    <edge id="-1006807358#0" from="9288727399" to="9288727389" priority="3" type="highway.residential" numLanes="1" speed="13.89" disallow="tram rail_urban rail rail_electric rail_fast ship" />
    <edge id="-1006807358#1" from="9288727390" to="9288727399" priority="3" type="highway.residential" numLanes="1" speed="13.89" disallow="tram rail_urban rail rail_electric rail_fast ship" />
    <edge id="-1006807360" from="9288727395" to="9288727390" priority="3" type="highway.residential" numLanes="1" speed="13.89" shape="8153.19,7643.17 8173.70,7630.95 8181.75,7631.45" disallow="tram rail_urban rail rail_electric rail_fast ship" />
    <edge id="-1006807361#0" from="9288727400" to="7236725178" priority="3" type="highway.residential" numLanes="1" speed="13.89" shape="8104.04,7671.10 8096.16,7678.57 8089.10,7685.24" disallow="tram rail_urban rail rail_electric rail_fast ship" />
    <edge id="-1006807361#1" from="9288727395" to="9288727400" priority="3" type="highway.residential" numLanes="1" speed="13.89" shape="8153.19,7643.17 8151.97,7639.21 8145.18,7632.39 8104.04,7671.10" disallow="tram rail_urban rail rail_electric rail_fast ship" />
    <edge id="-1006807361#2" from="9288727398" to="9288727395" priority="3" type="highway.residential" numLanes="1" speed="13.89" disallow="tram rail_urban rail rail_electric rail_fast ship" />
    <edge id="-1006807361#3" from="9288727399" to="9288727398" priority="3" type="highway.residential" numLanes="1" speed="13.89" shape="8172.27,7683.14 8166.97,7681.87 8147.14,7677.09" disallow="tram rail_urban rail rail_electric rail_fast ship" />
    <edge id="-1006807362" from="9288727400" to="9288727398" priority="3" type="highway.residential" numLanes="1" speed="13.89" disallow="tram rail_urban rail rail_electric rail_fast ship" />
    <edge id="-1006810197" from="2258978117" to="7193143080" priority="3" type="highway.residential" numLanes="1" speed="13.89" disallow="tram rail_urban rail rail_electric rail_fast ship" />
    <edge id="-1006810198" from="7193143080" to="248426574" priority="3" type="highway.residential" numLanes="1" speed="8.33" shape="5278.78,5689.18 5281.88,5687.69 5285.49,5685.12" disallow="tram rail_urban rail rail_electric rail_fast ship" />
    <edge id="-1014903995" from="9362364176" to="2865077635" priority="11" type="highway.secondary" numLanes="1" speed="22.22" shape="5381.14,6813.57 5391.82,6870.28 5414.08,6961.97 5437.15,7023.39 5519.96,7187.91 5555.78,7256.71 5562.22,7268.84 5579.15,7300.67 5581.25,7309.03" disallow="tram rail_urban rail rail_electric rail_fast ship" />
    <edge id="-1014903996#1" from="248426569" to="5046503564" priority="11" type="highway.secondary" numLanes="1" speed="8.33" shape="5256.14,5714.77 5256.23,5716.37 5256.38,5718.61 5257.65,5738.61 5258.62,5754.52" disallow="tram rail_urban rail rail_electric rail_fast ship" />
    <edge id="-1014906269" from="310907952" to="9362343458" priority="11" type="highway.secondary" numLanes="1" speed="19.44" disallow="tram rail_urban rail rail_electric rail_fast ship">
        <param key="ref" value="D 937" />
    </edge>
    <edge id="-1014906270#0" from="3657862438" to="248426246" priority="11" type="highway.secondary" numLanes="1" speed="13.89" shape="4625.70,7127.86 4599.86,7109.28 4582.59,7094.03 4577.79,7088.94" disallow="tram rail_urban rail rail_electric rail_fast ship">
        <param key="ref" value="D 937" />
    </edge>
    <edge id="-1014906270#1" from="9362343459" to="3657862438" priority="11" type="highway.secondary" numLanes="1" speed="13.89" shape="4653.18,7147.85 4638.68,7137.19 4625.70,7127.86" disallow="tram rail_urban rail rail_electric rail_fast ship">
        <param key="ref" value="D 937" />
    </edge>
    <edge id="-1014906274#0" from="9362343464" to="248426246" priority="11" type="highway.secondary" numLanes="1" speed="13.89" shape="4554.87,7185.17 4558.29,7156.76 4561.48,7132.20 4566.95,7110.16 4572.18,7099.13 4577.79,7088.94" disallow="tram rail_urban rail rail_electric rail_fast ship">
        <param key="ref" value="D 936" />
    </edge>
    <edge id="-1014906274#1" from="9362343468" to="9362343464" priority="11" type="highway.secondary" numLanes="1" speed="13.89" shape="4546.82,7244.64 4551.32,7214.55 4554.87,7185.17" disallow="tram rail_urban rail rail_electric rail_fast ship">
        <param key="ref" value="D 936" />
    </edge>
    <edge id="-1014906275#0" from="437972851" to="9362343468" priority="11" type="highway.secondary" numLanes="1" speed="19.44" shape="4191.66,7577.34 4199.83,7571.94 4494.70,7376.93 4507.19,7364.84 4517.16,7351.13 4525.83,7337.44 4532.33,7322.60 4537.80,7304.86 4546.82,7244.64" disallow="tram rail_urban rail rail_electric rail_fast ship">
        <param key="ref" value="D 936" />
    </edge>
    <edge id="-1014906275#1" from="9362343469" to="437972851" priority="11" type="highway.secondary" numLanes="1" speed="19.44" shape="4045.30,7680.30 4086.78,7652.50 4191.66,7577.34" disallow="tram rail_urban rail rail_electric rail_fast ship">
        <param key="ref" value="D 936" />
    </edge>
    <edge id="-1015437769#0" from="1441095246" to="2258978443" priority="11" type="highway.secondary" numLanes="1" speed="13.89" disallow="tram rail_urban rail rail_electric rail_fast ship">
        <param key="ref" value="D 936" />
    </edge>
    <edge id="-1015437769#1" from="248426246" to="1441095246" priority="11" type="highway.secondary" numLanes="1" speed="13.89" disallow="tram rail_urban rail rail_electric rail_fast ship">
        <param key="ref" value="D 936" />
    </edge>
    <edge id="-1015437770#0" from="248426242" to="5308644254" priority="11" type="highway.secondary" numLanes="1" speed="8.33" disallow="tram rail_urban rail rail_electric rail_fast ship">
        <param key="ref" value="D 936" />
    </edge>
    <edge id="-1015437770#1" from="2258978443" to="248426242" priority="11" type="highway.secondary" numLanes="1" speed="8.33" disallow="tram rail_urban rail rail_electric rail_fast ship">
        <param key="ref" value="D 936" />
    </edge>
    <edge id="-1015437771" from="5308644254" to="248426239" priority="11" type="highway.secondary" numLanes="1" speed="8.33" shape="4575.45,6977.05 4575.56,6974.13 4575.95,6945.91" disallow="tram rail_urban rail rail_electric rail_fast ship">
        <param key="ref" value="D 936" />
    </edge>
    <edge id="-1015896814#0" from="10171829400" to="2258978401" priority="11" type="highway.secondary" numLanes="1" speed="8.33" disallow="tram rail_urban rail rail_electric rail_fast ship" />
    <edge id="-1015896814#1" from="248426556" to="10171829400" priority="11" type="highway.secondary" numLanes="1" speed="8.33" disallow="tram rail_urban rail rail_electric rail_fast ship" />
    <edge id="-1015906257#0" from="1751662563" to="2258978398" priority="3" type="highway.residential" numLanes="1" speed="8.33" shape="6125.36,6434.08 6114.86,6437.03 6062.45,6458.38 6037.71,6466.88" disallow="tram rail_urban rail rail_electric rail_fast ship" />
    <edge id="-1015906257#1" from="1751662511" to="1751662563" priority="3" type="highway.residential" numLanes="1" speed="8.33" shape="6179.16,6406.80 6166.40,6417.15 6160.23,6420.74 6151.83,6424.36 6142.47,6428.49 6125.36,6434.08" disallow="tram rail_urban rail rail_electric rail_fast ship" />
    <edge id="-1015906258#0" from="2261588538" to="1751662503" priority="3" type="highway.residential" numLanes="1" speed="8.33" disallow="tram rail_urban rail rail_electric rail_fast ship" />
    <edge id="-1015906258#1" from="2261588441" to="2261588538" priority="3" type="highway.residential" numLanes="1" speed="8.33" shape="6222.67,6394.69 6219.02,6395.54 6215.38,6396.41 6196.38,6403.24" disallow="tram rail_urban rail rail_electric rail_fast ship" />
    <edge id="-1015906258#2" from="2258978381" to="2261588441" priority="3" type="highway.residential" numLanes="1" speed="8.33" shape="6299.59,6379.25 6278.86,6382.92 6222.67,6394.69" disallow="tram rail_urban rail rail_electric rail_fast ship" />
    <edge id="-1015907231" from="1979551079" to="1979551063" priority="3" type="highway.residential" numLanes="1" speed="8.33" shape="5606.21,6258.15 5600.39,6252.35 5577.91,6229.23 5553.31,6205.78 5547.57,6200.52" disallow="tram rail_urban rail rail_electric rail_fast ship" />
    <edge id="-1016246308#0" from="2259003902" to="275554582" priority="3" type="highway.residential" numLanes="1" speed="8.33" disallow="tram rail_urban rail rail_electric rail_fast ship" />
    <edge id="-1016248038" from="503137671" to="2259003898" priority="3" type="highway.residential" numLanes="1" speed="8.33" shape="5251.13,6392.16 5236.50,6379.00 5123.26,6277.18 5005.32,6169.17 5003.72,6167.71" disallow="tram rail_urban rail rail_electric rail_fast ship" />
    <edge id="-1018315144#0" from="3404461356" to="264654985" priority="3" type="highway.residential" numLanes="1" speed="8.33" shape="5404.82,6626.00 5399.77,6627.64 5345.02,6635.20" disallow="tram rail_urban rail rail_electric rail_fast ship" />
    <edge id="-1018315144#1" from="3404461359" to="3404461356" priority="3" type="highway.residential" numLanes="1" speed="8.33" shape="5577.84,6679.69 5573.09,6682.08 5567.49,6683.04 5561.70,6682.54 5557.03,6680.29 5542.05,6667.99 5527.19,6657.11 5511.36,6650.38 5463.89,6636.64 5404.82,6626.00" disallow="tram rail_urban rail rail_electric rail_fast ship" />
    <edge id="-1018315144#2" from="9392489379" to="3404461359" priority="3" type="highway.residential" numLanes="1" speed="8.33" shape="5588.03,6631.81 5587.02,6638.39 5581.74,6672.64 5580.25,6676.41 5577.84,6679.69" disallow="tram rail_urban rail rail_electric rail_fast ship" />
    <edge id="-1022620048" from="1877496411" to="2460354026" priority="11" type="highway.secondary" numLanes="1" speed="8.33" shape="5241.64,5204.43 5233.15,5183.77 5226.74,5167.97 5220.32,5152.17" disallow="tram rail_urban rail rail_electric rail_fast ship" />
    <edge id="-1024243567" from="9444810424" to="4139626108" priority="12" type="highway.primary" numLanes="2" speed="13.89" shape="8287.22,6357.34 8266.31,6347.11 8242.12,6335.28" disallow="tram rail_urban rail rail_electric rail_fast ship">
        <param key="ref" value="D 906" />
    </edge>
    <edge id="-108010125" from="12580318236" to="258349361" priority="11" type="highway.secondary" numLanes="1" speed="13.89" shape="6384.10,6883.04 6276.78,6910.15 6231.85,6921.29 6210.53,6926.57 6175.62,6926.39 6133.88,6917.77" disallow="tram rail_urban rail rail_electric rail_fast ship">
        <param key="ref" value="D 27" />
    </edge>
    <edge id="-108010131" from="1240026974" to="1240027014" priority="3" type="highway.residential" numLanes="1" speed="13.89" disallow="tram rail_urban rail rail_electric rail_fast ship" />
    <edge id="-108010135#0" from="4376091780" to="4376091770" priority="4" type="highway.unclassified" numLanes="1" speed="13.89" shape="7378.32,7468.71 7379.82,7464.92 7383.23,7458.03" disallow="tram rail_urban rail rail_electric rail_fast ship" />
    <edge id="-108010135#1" from="4376091781" to="4376091780" priority="4" type="highway.unclassified" numLanes="1" speed="13.89" disallow="tram rail_urban rail rail_electric rail_fast ship" />
    <edge id="-108010135#2" from="2709223431" to="4376091781" priority="4" type="highway.unclassified" numLanes="1" speed="13.89" shape="7337.74,7584.41 7362.26,7514.06 7376.27,7473.87 7377.42,7470.98" disallow="tram rail_urban rail rail_electric rail_fast ship" />
    <edge id="-108010135#3" from="8129788948" to="2709223431" priority="4" type="highway.unclassified" numLanes="1" speed="13.89" disallow="tram rail_urban rail rail_electric rail_fast ship" />
    <edge id="-108010135#4" from="746692259" to="8129788948" priority="4" type="highway.unclassified" numLanes="1" speed="13.89" disallow="tram rail_urban rail rail_electric rail_fast ship" />
    <edge id="-1090278020" from="2431031425" to="9986479056" priority="4" type="highway.unclassified" numLanes="1" speed="13.89" disallow="tram rail_urban rail rail_electric rail_fast ship" />
    <edge id="-1090278021#0" from="9986479074" to="9986479086" priority="4" type="highway.unclassified" numLanes="1" speed="13.89" shape="2280.00,5718.40 2260.37,5716.62 2172.64,5711.22 2115.57,5707.69 2074.04,5705.59 2046.17,5705.54 2017.14,5707.08 1994.96,5710.19 1976.14,5713.75 1972.77,5712.91 1969.50,5706.16 1988.45,5543.01 1987.16,5536.43" disallow="tram rail_urban rail rail_electric rail_fast ship" />
    <edge id="-1090278021#1" from="9986479065" to="9986479074" priority="4" type="highway.unclassified" numLanes="1" speed="13.89" shape="2581.60,5787.62 2583.60,5780.27 2557.86,5777.13 2528.94,5772.86 2503.86,5767.93 2471.15,5761.76 2410.58,5749.22 2373.10,5740.75 2310.42,5726.27 2280.00,5718.40" disallow="tram rail_urban rail rail_electric rail_fast ship" />
    <edge id="-1090278021#2" from="9986479087" to="9986479065" priority="4" type="highway.unclassified" numLanes="1" speed="13.89" shape="2560.31,5825.86 2577.45,5797.90 2581.60,5787.62" disallow="tram rail_urban rail rail_electric rail_fast ship" />
    <edge id="-1090278021#3" from="9986479062" to="9986479087" priority="4" type="highway.unclassified" numLanes="1" speed="13.89" shape="2242.43,5899.66 2444.59,6006.20 2560.31,5825.86" disallow="tram rail_urban rail rail_electric rail_fast ship" />
    <edge id="-1096248385#0" from="10039090221" to="10039090347" priority="4" type="highway.unclassified" numLanes="1" speed="13.89" shape="2610.07,5252.90 2600.32,5250.24 2585.28,5242.41 2575.40,5236.06 2566.62,5224.57" disallow="tram rail_urban rail rail_electric rail_fast ship" />
    <edge id="-1096248385#1" from="10039090349" to="10039090221" priority="4" type="highway.unclassified" numLanes="1" speed="13.89" shape="2776.83,5330.72 2758.86,5314.84 2739.16,5299.97 2712.94,5285.32 2693.25,5277.35 2671.65,5273.55 2655.44,5273.91 2645.25,5272.89 2612.63,5253.59 2610.07,5252.90" disallow="tram rail_urban rail rail_electric rail_fast ship" />
    <edge id="-1096248386#0" from="10039090221" to="10039090346" priority="4" type="highway.unclassified" numLanes="1" speed="13.89" shape="2610.07,5252.90 2605.63,5260.71 2595.02,5275.01" disallow="tram rail_urban rail rail_electric rail_fast ship" />
    <edge id="-1096248386#1" from="10039090232" to="10039090221" priority="4" type="highway.unclassified" numLanes="1" speed="13.89" shape="2580.30,5202.15 2604.01,5164.46 2607.81,5161.25 2615.51,5160.73 2624.24,5162.57 2651.00,5179.98 2652.66,5185.17 2648.34,5192.84 2637.94,5204.13 2610.07,5252.90" disallow="tram rail_urban rail rail_electric rail_fast ship" />
    <edge id="-1096248386#2" from="10039090347" to="10039090232" priority="4" type="highway.unclassified" numLanes="1" speed="13.89" disallow="tram rail_urban rail rail_electric rail_fast ship" />
    <edge id="-1096248387" from="10039090225" to="10039090229" priority="4" type="highway.unclassified" numLanes="1" speed="13.89" shape="2453.25,5372.78 2513.12,5272.21 2519.35,5265.91 2549.62,5230.45 2556.45,5219.18" disallow="tram rail_urban rail rail_electric rail_fast ship" />
    <edge id="-1096248388" from="10039090230" to="10039090232" priority="4" type="highway.unclassified" numLanes="1" speed="13.89" shape="2543.60,5156.35 2534.62,5175.61 2580.30,5202.15" disallow="tram rail_urban rail rail_electric rail_fast ship" />
    <edge id="-1096248403#0" from="10039090349" to="10039090367" priority="4" type="highway.unclassified" numLanes="1" speed="13.89" shape="2776.83,5330.72 2748.03,5373.54 2740.52,5379.86 2731.15,5381.20 2717.45,5377.26 2707.44,5375.35 2702.13,5376.53" disallow="tram rail_urban rail rail_electric rail_fast ship" />
    <edge id="-1096248403#1" from="10039090357" to="10039090349" priority="4" type="highway.unclassified" numLanes="1" speed="13.89" shape="2804.58,5269.96 2796.59,5282.12 2790.69,5297.00 2784.09,5317.10 2778.44,5328.33 2776.83,5330.72" disallow="tram rail_urban rail rail_electric rail_fast ship" />
    <edge id="-1096248405" from="10039090374" to="662441898" priority="4" type="highway.unclassified" numLanes="1" speed="13.89" disallow="tram rail_urban rail rail_electric rail_fast ship" />
    <edge id="-1107140822" from="2258978103" to="2258978087" priority="3" type="highway.residential" numLanes="1" speed="8.33" shape="5297.13,5670.91 5295.60,5665.08 5291.94,5658.69" disallow="tram rail_urban rail rail_electric rail_fast ship" />
    <edge id="-1107140824" from="248426574" to="2258978103" priority="3" type="highway.residential" numLanes="1" speed="8.33" shape="5285.49,5685.12 5296.47,5672.98 5297.13,5670.91" disallow="tram rail_urban rail rail_electric rail_fast ship" />
    <edge id="-1107140856" from="5893895686" to="705395366" priority="11" type="highway.secondary" numLanes="1" speed="8.33" disallow="tram rail_urban rail rail_electric rail_fast ship">
        <param key="ref" value="D 906" />
    </edge>
    <edge id="-1107140861" from="2258978084" to="2258978099" priority="11" type="highway.secondary" numLanes="1" speed="8.33" disallow="tram rail_urban rail rail_electric rail_fast ship" />
    <edge id="-1112112382#0" from="2258978251" to="248426561" priority="11" type="highway.secondary" numLanes="2" speed="8.33" disallow="tram rail_urban rail rail_electric rail_fast ship" />
    <edge id="-1112112382#2" from="10174275753" to="2258978251" priority="11" type="highway.secondary" numLanes="2" speed="8.33" shape="5265.05,5902.36 5266.24,5926.21 5266.38,5929.17 5266.50,5931.70" disallow="tram rail_urban rail rail_electric rail_fast ship" />
    <edge id="-1114959962#0" from="2044551837" to="7556344773" priority="11" type="highway.secondary" numLanes="1" speed="27.78" disallow="tram rail_urban rail rail_electric rail_fast ship">
        <param key="ref" value="D 906" />
    </edge>
    <edge id="-1114959962#1" from="1588687936" to="2044551837" priority="11" type="highway.secondary" numLanes="1" speed="27.78" shape="3864.31,4858.72 3877.27,4869.37 3894.14,4886.74 3931.72,4923.87 3959.03,4947.59 3994.68,4970.79 4040.50,4996.56" disallow="tram rail_urban rail rail_electric rail_fast ship">
        <param key="ref" value="D 906" />
    </edge>
    <edge id="-1117343611" from="10219471981" to="9362364176" priority="11" type="highway.secondary" numLanes="1" speed="13.89" shape="5351.06,6665.11 5364.63,6732.41 5381.14,6813.57" disallow="tram rail_urban rail rail_electric rail_fast ship" />
    <edge id="-1117343612#0" from="264654985" to="10219471981" priority="11" type="highway.secondary" numLanes="1" speed="8.33" disallow="tram rail_urban rail rail_electric rail_fast ship" />
    <edge id="-1117343612#1" from="3044239111" to="264654985" priority="11" type="highway.secondary" numLanes="1" speed="8.33" shape="5335.08,6588.80 5335.65,6591.43 5345.02,6635.20" disallow="tram rail_urban rail rail_electric rail_fast ship" />
    <edge id="-1122579732" from="2283490621" to="12698868898" priority="11" type="highway.secondary" numLanes="1" speed="8.33" shape="4767.61,5324.79 4771.23,5325.18 4798.42,5329.55 4806.21,5331.55 4812.79,5333.76 4816.01,5334.85 4835.39,5344.32 4854.07,5357.28 4860.88,5363.38 4870.77,5371.97" disallow="tram rail_urban rail rail_electric rail_fast ship">
        <param key="ref" value="D 906" />
    </edge>
    <edge id="-112279748#0" from="2240258252" to="275554296" priority="10" type="highway.tertiary" numLanes="1" speed="8.33" shape="4330.69,6375.71 4330.73,6351.67 4334.82,6275.31 4335.24,6267.35 4338.91,6208.11 4339.10,6202.67 4341.19,6175.16 4344.98,6142.17 4346.09,6136.30" disallow="tram rail_urban rail rail_electric rail_fast ship">
        <param key="ref" value="D 936" />
    </edge>
    <edge id="-112279748#1" from="10098343466" to="2240258252" priority="10" type="highway.tertiary" numLanes="1" speed="8.33" disallow="tram rail_urban rail rail_electric rail_fast ship">
        <param key="ref" value="D 936" />
    </edge>
    <edge id="-1127457228" from="258347608" to="2259003689" priority="11" type="highway.secondary" numLanes="1" speed="13.89" shape="5205.68,3897.76 5203.25,3911.38 5204.41,3920.57 5212.72,3939.55 5215.45,3954.07" disallow="tram rail_urban rail rail_electric rail_fast ship">
        <param key="ref" value="D 936" />
    </edge>
    <edge id="-1131177310#0" from="2711191868" to="2709474045" priority="3" type="highway.residential" numLanes="1" speed="13.89" shape="7799.73,6489.14 7809.16,6480.69 7818.89,6462.65 7827.64,6439.94" disallow="tram rail_urban rail rail_electric rail_fast ship" />
    <edge id="-1131177310#1" from="2711191879" to="2711191868" priority="3" type="highway.residential" numLanes="1" speed="13.89" shape="7721.91,6518.84 7734.39,6512.00 7750.05,6507.49 7766.27,6505.24 7783.63,6500.73 7795.76,6492.69 7799.73,6489.14" disallow="tram rail_urban rail rail_electric rail_fast ship" />
    <edge id="-1131177310#2" from="10543065168" to="2711191879" priority="3" type="highway.residential" numLanes="1" speed="13.89" shape="7700.04,6530.83 7704.91,6528.22 7719.44,6520.19 7721.91,6518.84" disallow="tram rail_urban rail rail_electric rail_fast ship" />
    <edge id="-114232588#0" from="3402435441" to="882562100" priority="4" type="highway.unclassified" numLanes="1" speed="13.89" disallow="tram rail_urban rail rail_electric rail_fast ship" />
    <edge id="-114232590" from="1294337304" to="1294337294" priority="3" type="highway.residential" numLanes="1" speed="13.89" disallow="tram rail_urban rail rail_electric rail_fast ship" />
    <edge id="-114232595" from="705395358" to="1294337329" priority="3" type="highway.residential" numLanes="1" speed="13.89" shape="5826.05,4946.42 5831.60,4952.43 5832.44,4960.55 5835.68,5002.24 5838.71,5024.72" disallow="tram rail_urban rail rail_electric rail_fast ship" />
    <edge id="-114235489#0" from="1294382583" to="4516116524" priority="4" type="highway.unclassified" numLanes="1" speed="13.89" shape="2542.57,7341.14 2429.97,7441.42 2395.63,7469.98" disallow="tram rail_urban rail rail_electric rail_fast ship" />
    <edge id="-114235489#1" from="1294382557" to="1294382583" priority="4" type="highway.unclassified" numLanes="1" speed="13.89" disallow="tram rail_urban rail rail_electric rail_fast ship" />
    <edge id="-114235489#2" from="4516116363" to="1294382557" priority="4" type="highway.unclassified" numLanes="1" speed="13.89" shape="2784.77,7001.68 2786.59,7029.59 2790.17,7106.36 2788.45,7122.15 2779.61,7138.05" disallow="tram rail_urban rail rail_electric rail_fast ship" />
    <edge id="-114235489#3" from="1294382587" to="4516116363" priority="4" type="highway.unclassified" numLanes="1" speed="13.89" shape="2760.53,6629.69 2763.50,6674.92 2784.77,7001.68" disallow="tram rail_urban rail rail_electric rail_fast ship" />
    <edge id="-114235489#4" from="4516116496" to="1294382587" priority="4" type="highway.unclassified" numLanes="1" speed="13.89" shape="2742.61,6159.32 2739.11,6173.35 2739.10,6198.18 2757.78,6587.93 2760.53,6629.69" disallow="tram rail_urban rail rail_electric rail_fast ship" />
    <edge id="-114235489#5" from="1294382514" to="4516116496" priority="4" type="highway.unclassified" numLanes="1" speed="13.89" disallow="tram rail_urban rail rail_electric rail_fast ship" />
    <edge id="-114235493#0" from="6376329019" to="1294382570" priority="4" type="highway.unclassified" numLanes="1" speed="13.89" shape="3113.43,6112.74 3108.84,6105.28 3099.62,6085.26" disallow="tram rail_urban rail rail_electric rail_fast ship" />
    <edge id="-114235493#1" from="2431031470" to="6376329019" priority="4" type="highway.unclassified" numLanes="1" speed="13.89" shape="3215.99,6259.23 3122.30,6125.41 3113.43,6112.74" disallow="tram rail_urban rail rail_electric rail_fast ship" />
    <edge id="-114235493#2" from="2431031474" to="2431031470" priority="4" type="highway.unclassified" numLanes="1" speed="13.89" disallow="tram rail_urban rail rail_electric rail_fast ship" />
    <edge id="-114235493#3" from="1294382563" to="2431031474" priority="4" type="highway.unclassified" numLanes="1" speed="13.89" disallow="tram rail_urban rail rail_electric rail_fast ship" />
    <edge id="-114235493#4" from="1294382568" to="1294382563" priority="4" type="highway.unclassified" numLanes="1" speed="13.89" shape="3858.16,7033.25 3798.77,6968.28 3635.19,6790.91 3478.67,6620.94 3432.96,6569.03" disallow="tram rail_urban rail rail_electric rail_fast ship" />
    <edge id="-1167409231" from="10266963069" to="662441892" priority="4" type="highway.unclassified" numLanes="1" speed="13.89" shape="2571.18,5049.03 2569.43,5045.97 2565.92,5039.80" disallow="tram rail_urban rail rail_electric rail_fast ship" />
    <edge id="-1197043273" from="11107405074" to="2709474218" priority="3" type="highway.residential" numLanes="1" speed="13.89" disallow="tram rail_urban rail rail_electric rail_fast ship" />
    <edge id="-121269891#0" from="2709473973" to="1647200946" priority="3" type="highway.residential" numLanes="1" speed="13.89" shape="7121.26,6222.35 7121.11,6206.37 7120.35,6166.59 7119.12,6158.01" disallow="tram rail_urban rail rail_electric rail_fast ship" />
    <edge id="-121269891#1" from="2709473978" to="2709473973" priority="3" type="highway.residential" numLanes="1" speed="13.89" disallow="tram rail_urban rail rail_electric rail_fast ship" />
    <edge id="-121269891#2" from="3714211599" to="2709473978" priority="3" type="highway.residential" numLanes="1" speed="13.89" disallow="tram rail_urban rail rail_electric rail_fast ship" />
    <edge id="-121269891#3" from="3714211597" to="3714211599" priority="3" type="highway.residential" numLanes="1" speed="13.89" shape="7110.94,6289.44 7114.74,6277.52 7118.97,6257.14 7119.20,6255.15" disallow="tram rail_urban rail rail_electric rail_fast ship" />
    <edge id="-121269891#4" from="2261335766" to="3714211597" priority="3" type="highway.residential" numLanes="1" speed="13.89" shape="7087.84,6340.72 7091.01,6333.75 7108.38,6297.45 7110.94,6289.44" disallow="tram rail_urban rail rail_electric rail_fast ship" />
    <edge id="-121269891#5" from="7238615339" to="2261335766" priority="3" type="highway.residential" numLanes="1" speed="13.89" shape="7072.57,6378.39 7079.85,6360.94 7084.32,6349.13 7087.84,6340.72" disallow="tram rail_urban rail rail_electric rail_fast ship" />
    <edge id="-121269891#6" from="2709474125" to="7238615339" priority="3" type="highway.residential" numLanes="1" speed="13.89" shape="7068.09,6529.87 7061.51,6509.61 7057.49,6487.50 7056.48,6461.04 7057.16,6435.92 7060.18,6415.65 7067.45,6390.68 7072.57,6378.39" disallow="tram rail_urban rail rail_electric rail_fast ship" />
    <edge id="-121269891#7" from="2709474165" to="2709474125" priority="3" type="highway.residential" numLanes="1" speed="13.89" shape="7090.22,6560.52 7080.43,6550.64 7068.09,6529.87" disallow="tram rail_urban rail rail_electric rail_fast ship" />
    <edge id="-121269891#8" from="2709474214" to="2709474165" priority="3" type="highway.residential" numLanes="1" speed="13.89" shape="7144.84,6605.77 7124.31,6590.84 7098.69,6569.06 7090.22,6560.52" disallow="tram rail_urban rail rail_electric rail_fast ship" />
    <edge id="-121269891#9" from="2709474229" to="2709474214" priority="3" type="highway.residential" numLanes="1" speed="13.89" shape="7175.39,6619.99 7165.97,6615.83 7160.14,6613.28 7146.41,6606.92 7144.84,6605.77" disallow="tram rail_urban rail rail_electric rail_fast ship" />
    <edge id="-125434407#0" from="1393188034" to="1393188072" priority="3" type="highway.residential" numLanes="1" speed="13.89" shape="8031.15,6076.72 8025.59,6068.79 7903.69,5973.55 7909.86,5963.36 7886.85,5947.93 7860.07,5976.72 7844.10,5966.87 7793.12,6034.42 7789.58,6039.04" disallow="tram rail_urban rail rail_electric rail_fast ship" />
    <edge id="-125434407#1" from="1393188076" to="1393188034" priority="3" type="highway.residential" numLanes="1" speed="13.89" shape="8014.18,6145.14 8027.65,6126.53 8037.13,6095.67 8031.15,6076.72" disallow="tram rail_urban rail rail_electric rail_fast ship" />
    <edge id="-125434407#2" from="1393188008" to="1393188076" priority="3" type="highway.residential" numLanes="1" speed="13.89" shape="7982.77,6173.47 7986.30,6168.69 7989.82,6163.90 8000.60,6158.03 8014.18,6145.14" disallow="tram rail_urban rail rail_electric rail_fast ship" />
    <edge id="-125434417" from="1393188057" to="1393188039" priority="3" type="highway.residential" numLanes="1" speed="13.89" disallow="tram rail_urban rail rail_electric rail_fast ship" />
    <edge id="-125685533#0" from="1647200766" to="1395334628" priority="3" type="highway.residential" numLanes="1" speed="8.33" shape="7411.23,5506.13 7400.97,5463.70 7387.14,5445.05" disallow="tram rail_urban rail rail_electric rail_fast ship" />
    <edge id="-125685533#1" from="1647200789" to="1647200766" priority="3" type="highway.residential" numLanes="1" speed="8.33" disallow="tram rail_urban rail rail_electric rail_fast ship" />
    <edge id="-125685533#2" from="1647200802" to="1647200789" priority="3" type="highway.residential" numLanes="1" speed="8.33" shape="7424.05,5562.06 7420.37,5543.87 7418.45,5535.96" disallow="tram rail_urban rail rail_electric rail_fast ship" />
    <edge id="-125685533#3" from="9445219517" to="1647200802" priority="3" type="highway.residential" numLanes="1" speed="8.33" shape="7475.50,5604.88 7432.71,5576.03 7424.05,5562.06" disallow="tram rail_urban rail rail_electric rail_fast ship" />
    <edge id="-125685533#4" from="1393188012" to="9445219517" priority="3" type="highway.residential" numLanes="1" speed="8.33" disallow="tram rail_urban rail rail_electric rail_fast ship" />