<?xml version="1.0" encoding="UTF-8"?>

<!-- generated on 2025-04-29 15:50:15 by Eclipse SUMO netconvert Version 1.22.0
<netconvertConfiguration xmlns:xsi="http://www.w3.org/2001/XMLSchema-instance" xsi:noNamespaceSchemaLocation="http://sumo.dlr.de/xsd/netconvertConfiguration.xsd">

    <input>
        <sumo-net-file value="ozoir_la_ferriere/ozoir_la_ferriere.net.xml"/>
    </input>

    <output>
        <plain-output-prefix value="ozoir_la_ferriere/ozoir_la_ferriere"/>
    </output>

    <processing>
        <geometry.min-radius.fix.railways value="false"/>
        <geometry.max-grade.fix value="false"/>
        <offset.disable-normalization value="true"/>
        <lefthand value="0"/>
    </processing>

    <tls_building>
        <tls.ignore-internal-junction-jam value="1"/>
    </tls_building>

    <junctions>
        <no-turnarounds value="true"/>
        <junctions.corner-detail value="5"/>
        <junctions.limit-turn-speed value="5.50"/>
        <rectangular-lane-cut value="0"/>
    </junctions>

    <pedestrian>
        <walkingareas value="0"/>
    </pedestrian>

</netconvertConfiguration>
-->

<nodes version="1.20" xmlns:xsi="http://www.w3.org/2001/XMLSchema-instance" xsi:noNamespaceSchemaLocation="http://sumo.dlr.de/xsd/nodes_file.xsd">
    <location netOffset="-471823.31,-5397684.60" convBoundary="0.00,0.00,8276.52,6939.14" origBoundary="2.616508,48.731701,2.729700,48.794092" projParameter="+proj=utm +zone=31 +ellps=WGS84 +datum=WGS84 +units=m +no_defs"/>

    <node id="10033391482" x="6167.71" y="3778.92" type="priority"/>
    <node id="10033391484" x="5955.16" y="3528.93" type="right_before_left"/>
    <node id="10033391486" x="6499.51" y="3883.95" type="priority"/>
    <node id="10098552352" x="6511.72" y="2765.97" type="priority"/>
    <node id="10098552357" x="6505.89" y="2724.35" type="priority"/>
    <node id="10159461097" x="3238.17" y="3091.21" type="right_before_left"/>
    <node id="10159497331" x="3294.62" y="3155.70" type="priority"/>
    <node id="10178168579" x="2918.84" y="5478.86" type="right_before_left"/>
    <node id="10178168583" x="2949.21" y="5452.51" type="right_before_left"/>
    <node id="10178168586" x="2922.63" y="5492.41" type="right_before_left"/>
    <node id="10178168587" x="2924.00" y="5463.94" type="right_before_left"/>
    <node id="10218816186" x="3065.29" y="5523.64" type="priority"/>
    <node id="10221819237" x="3075.12" y="5511.49" type="right_before_left"/>
    <node id="10221819242" x="2919.47" y="5477.03" type="priority"/>
    <node id="10221819243" x="2917.82" y="5476.45" type="dead_end"/>
    <node id="10221819245" x="2923.32" y="5465.91" type="priority"/>
    <node id="10221819246" x="2921.65" y="5465.36" type="dead_end"/>
    <node id="10221819248" x="2908.88" y="5532.88" type="priority"/>
    <node id="10221819249" x="2906.63" y="5532.08" type="dead_end"/>
    <node id="10221819251" x="2905.17" y="5543.84" type="priority"/>
    <node id="10221819252" x="2902.86" y="5543.04" type="dead_end"/>
    <node id="10221837340" x="2915.54" y="5535.99" type="dead_end"/>
    <node id="10221837357" x="2912.34" y="5545.44" type="dead_end"/>
    <node id="10221837845" x="2929.66" y="5468.72" type="dead_end"/>
    <node id="10221837849" x="2926.36" y="5478.32" type="dead_end"/>
    <node id="10221838033" x="2915.57" y="5505.52" type="dead_end"/>
    <node id="10221838035" x="2926.89" y="5455.49" type="priority"/>
    <node id="10221838036" x="2925.24" y="5454.92" type="dead_end"/>
    <node id="10221838043" x="2874.35" y="5566.02" type="priority"/>
    <node id="10221838046" x="2947.44" y="5462.59" type="priority"/>
    <node id="10221838084" x="2949.26" y="5441.02" type="right_before_left"/>
    <node id="10221838087" x="2950.38" y="5462.79" type="dead_end"/>
    <node id="10221838229" x="3011.75" y="5452.53" type="right_before_left"/>
    <node id="10221838305" x="2988.33" y="5447.70" type="right_before_left"/>
    <node id="10221838306" x="2959.15" y="5441.68" type="right_before_left"/>
    <node id="10221838342" x="3063.25" y="5467.11" type="right_before_left"/>
    <node id="10244734215" x="3066.43" y="5508.39" type="right_before_left"/>
    <node id="10244734216" x="3065.30" y="5460.27" type="right_before_left"/>
    <node id="10244734294" x="3145.09" y="5427.24" type="dead_end" fringe="inner">
        <param key="buffer_stop" value="true"/>
    </node>
    <node id="10244734297" x="3091.83" y="5546.76" type="priority"/>
    <node id="10245378327" x="2830.00" y="5637.11" type="right_before_left"/>
    <node id="10245378329" x="2953.14" y="5441.28" type="right_before_left"/>
    <node id="10245378330" x="3064.25" y="5463.77" type="right_before_left"/>
    <node id="10245378331" x="3069.16" y="5509.37" type="right_before_left"/>
    <node id="10251568801" x="6587.24" y="4035.31" type="right_before_left"/>
    <node id="10255850517" x="3063.14" y="5524.23" type="right_before_left"/>
    <node id="10292905504" x="5903.28" y="2820.34" type="right_before_left"/>
    <node id="10594512283" x="7013.31" y="2414.93" type="rail_signal">
        <param key="railway:signal:direction" value="forward"/>
    </node>
    <node id="1061620072" x="5469.75" y="1819.56" type="right_before_left"/>
    <node id="10649450146" x="2414.77" y="2568.99" type="priority"/>
    <node id="10649450147" x="2450.88" y="2511.26" type="right_before_left"/>
    <node id="11216174337" x="2768.08" y="3608.20" type="priority"/>
    <node id="11279294081" x="6101.57" y="2871.65" type="right_before_left"/>
    <node id="1180955428" x="4049.66" y="3133.17" type="priority"/>
    <node id="11966105051" x="6443.38" y="2671.54" type="priority"/>
    <node id="1206499362" x="2475.99" y="2712.77" type="priority"/>
    <node id="1206499387" x="2512.37" y="2678.46" type="right_before_left"/>
    <node id="1206499398" x="2549.77" y="2607.05" type="priority"/>
    <node id="1206499402" x="2476.22" y="2561.62" type="priority"/>
    <node id="1206499404" x="2444.14" y="2597.15" type="right_before_left"/>
    <node id="1215233770" x="4910.61" y="4912.49" type="priority"/>
    <node id="1215233775" x="4894.98" y="4907.97" type="priority"/>
    <node id="1215233785" x="3761.25" y="4363.35" type="priority"/>
    <node id="1215233849" x="4893.94" y="4937.25" type="priority"/>
    <node id="1215233860" x="4883.50" y="4917.07" type="priority"/>
    <node id="12312514511" x="4834.98" y="3805.49" type="right_before_left"/>
    <node id="12312514512" x="4895.76" y="3850.46" type="priority"/>
    <node id="12312514513" x="4894.95" y="3722.69" type="priority"/>
    <node id="12358816536" x="5345.44" y="3448.70" type="priority"/>
    <node id="12358816537" x="5358.78" y="3522.98" type="priority"/>
    <node id="12412695176" x="4311.93" y="6205.82" type="rail_signal">
        <param key="railway:signal:direction" value="forward"/>
    </node>
    <node id="12413894902" x="5200.92" y="5090.63" type="rail_signal">
        <param key="railway:signal:direction" value="backward"/>
    </node>
    <node id="12420217974" x="6483.23" y="2706.72" type="rail_signal">
        <param key="railway:signal:direction" value="backward"/>
    </node>
    <node id="12422827010" x="7526.52" y="2171.56" type="rail_signal">
        <param key="railway:signal:direction" value="forward"/>
    </node>
    <node id="12422827011" x="7537.83" y="2162.15" type="rail_signal">
        <param key="railway:signal:direction" value="backward"/>
    </node>
    <node id="12427686588" x="8029.93" y="1734.43" type="rail_signal">
        <param key="railway:signal:direction" value="backward"/>
    </node>
    <node id="12468548547" x="4955.58" y="3766.62" type="priority"/>
    <node id="12468548548" x="4979.00" y="3783.16" type="priority"/>
    <node id="12468548549" x="4863.61" y="3699.97" type="priority"/>
    <node id="12485850078" x="4646.08" y="5293.75" type="priority"/>
    <node id="12485850079" x="4613.72" y="5271.84" type="priority"/>
    <node id="12486308741" x="3397.61" y="3270.94" type="right_before_left"/>
    <node id="12486308742" x="3401.37" y="3267.25" type="priority"/>
    <node id="126701059#1-AddedOnRampNode" x="2224.18" y="4000.29" type="priority"/>
    <node id="1342706051" x="5208.09" y="5064.77" type="rail_signal">
        <param key="railway:signal:direction" value="forward"/>
    </node>
    <node id="1342728913" x="5484.07" y="4121.31" type="rail_signal">
        <param key="railway:signal:direction" value="forward"/>
    </node>
    <node id="1342728928" x="5793.14" y="3620.03" type="rail_signal">
        <param key="railway:signal:direction" value="forward"/>
    </node>
    <node id="1342728933" x="6579.83" y="2634.65" type="priority"/>
    <node id="1342728950" x="6490.92" y="2699.98" type="priority"/>
    <node id="1342731055" x="6810.43" y="2529.93" type="dead_end"/>
    <node id="1342731091" x="6831.58" y="2496.52" type="rail_signal">
        <param key="railway:signal:direction" value="forward"/>
    </node>
    <node id="1342731147" x="6601.12" y="2620.24" type="priority"/>
    <node id="1342958123" x="7723.87" y="2055.16" type="rail_signal">
        <param key="railway:signal:direction" value="forward"/>
    </node>
    <node id="1342983915" x="8199.43" y="1521.84" type="rail_signal">
        <param key="railway:signal:direction" value="backward"/>
    </node>
    <node id="1343108722" x="8246.87" y="1466.35" type="dead_end"/>
    <node id="1375036004" x="5696.95" y="2481.92" type="priority"/>
    <node id="1375036006" x="5666.87" y="2491.97" type="right_before_left"/>
    <node id="1375036014" x="5619.39" y="2505.79" type="right_before_left"/>
    <node id="1375036029" x="5580.76" y="2533.88" type="priority"/>
    <node id="1375036055" x="5501.00" y="2572.98" type="right_before_left"/>
    <node id="1375036057" x="5346.55" y="2572.03" type="priority"/>
    <node id="1375036060" x="5296.09" y="2573.73" type="priority"/>
    <node id="1375036072" x="5220.01" y="2586.03" type="priority"/>
    <node id="1375036073" x="5686.09" y="2583.57" type="priority"/>
    <node id="1375036074" x="5756.34" y="2584.44" type="right_before_left"/>
    <node id="1375036094" x="5835.38" y="2596.42" type="priority"/>
    <node id="1375036096" x="5156.02" y="2600.16" type="priority"/>
    <node id="1375036109" x="5333.27" y="2601.78" type="right_before_left"/>
    <node id="1375036113" x="5301.23" y="2605.15" type="right_before_left"/>
    <node id="1375036114" x="5780.99" y="2603.68" type="right_before_left"/>
    <node id="1375036115" x="5979.43" y="2605.49" type="dead_end"/>
    <node id="1375036117" x="5275.74" y="2609.24" type="right_before_left"/>
    <node id="1375036120" x="5836.67" y="2608.28" type="priority"/>
    <node id="1375036124" x="5421.34" y="2611.14" type="priority"/>
    <node id="1375036133" x="5600.43" y="2599.38" type="priority"/>
    <node id="1375036134" x="5224.91" y="2617.35" type="right_before_left"/>
    <node id="1375036140" x="5373.34" y="2619.83" type="right_before_left"/>
    <node id="1375036144" x="5797.89" y="2622.45" type="right_before_left"/>
    <node id="1375036161" x="5172.52" y="2628.21" type="right_before_left"/>
    <node id="1375036163" x="5096.12" y="2629.67" type="right_before_left"/>
    <node id="1375036164" x="5923.99" y="2626.72" type="priority"/>
    <node id="1375036170" x="5465.75" y="2631.29" type="right_before_left"/>
    <node id="1375036171" x="5850.11" y="2631.95" type="dead_end"/>
    <node id="1375036203" x="5619.37" y="2643.50" type="right_before_left"/>
    <node id="1375036204" x="5490.40" y="2643.32" type="priority"/>
    <node id="1375036206" x="5306.34" y="2645.45" type="priority"/>
    <node id="1375036208" x="5750.16" y="2643.57" type="priority"/>
    <node id="1375036216" x="5282.40" y="2649.10" type="right_before_left"/>
    <node id="1375036217" x="5550.46" y="2648.76" type="right_before_left"/>
    <node id="1375036219" x="5854.92" y="2647.40" type="dead_end"/>
    <node id="1375036221" x="5162.81" y="2651.71" type="right_before_left"/>
    <node id="1375036228" x="5257.47" y="2652.92" type="priority"/>
    <node id="1375036230" x="5685.97" y="2652.05" type="priority"/>
    <node id="1375036234" x="5356.73" y="2655.80" type="right_before_left"/>
    <node id="1375036238" x="5935.38" y="2656.26" type="right_before_left"/>
    <node id="1375036249" x="5062.57" y="2662.39" type="priority"/>
    <node id="1375036250" x="5059.88" y="2662.28" type="dead_end"/>
    <node id="1375036255" x="5162.59" y="2663.72" type="right_before_left"/>
    <node id="1375036257" x="5079.89" y="2666.76" type="right_before_left"/>
    <node id="1375036270" x="5856.30" y="2667.48" type="dead_end"/>
    <node id="1375036277" x="5673.83" y="2673.68" type="right_before_left"/>
    <node id="1375036280" x="5401.06" y="2677.17" type="right_before_left"/>
    <node id="1375036285" x="5817.40" y="2681.62" type="priority"/>
    <node id="1375036288" x="5227.25" y="2688.07" type="right_before_left"/>
    <node id="1375036293" x="5570.71" y="2691.12" type="priority"/>
    <node id="1375036294" x="5563.64" y="2693.26" type="right_before_left"/>
    <node id="1375036296" x="5718.45" y="2694.48" type="dead_end"/>
    <node id="1375036301" x="5660.11" y="2698.99" type="priority"/>
    <node id="1375036303" x="5451.12" y="2701.09" type="right_before_left"/>
    <node id="1375036304" x="4941.76" y="2703.38" type="dead_end"/>
    <node id="1375036308" x="5730.18" y="2703.71" type="dead_end"/>
    <node id="1375036310" x="5047.69" y="2709.59" type="dead_end"/>
    <node id="1375036312" x="5294.89" y="2710.86" type="right_before_left"/>
    <node id="1375036313" x="5711.34" y="2709.45" type="dead_end"/>
    <node id="1375036317" x="5577.00" y="2711.80" type="dead_end"/>
    <node id="1375036326" x="5828.42" y="2717.37" type="right_before_left"/>
    <node id="1375036327" x="5485.91" y="2718.34" type="priority"/>
    <node id="1375036330" x="5149.97" y="2719.82" type="priority"/>
    <node id="1375036332" x="5325.98" y="2719.44" type="right_before_left"/>
    <node id="1375036342" x="5498.09" y="2726.14" type="dead_end"/>
    <node id="1375036344" x="5104.01" y="2728.54" type="dead_end"/>
    <node id="1375036355" x="5433.73" y="2737.55" type="priority"/>
    <node id="1375036356" x="5137.78" y="2739.99" type="dead_end"/>
    <node id="1375036358" x="5370.71" y="2739.07" type="priority"/>
    <node id="1375036360" x="5210.82" y="2740.36" type="priority"/>
    <node id="1375036362" x="5485.23" y="2740.63" type="priority"/>
    <node id="1375036366" x="5935.03" y="2750.70" type="priority"/>
    <node id="1375036367" x="5163.04" y="2748.45" type="dead_end"/>
    <node id="1375036369" x="5591.78" y="2750.95" type="dead_end"/>
    <node id="1375036374" x="5707.17" y="2752.52" type="priority"/>
    <node id="1375036381" x="5174.43" y="2761.96" type="priority" fringe="inner">
        <param key="buffer_stop" value="true"/>
    </node>
    <node id="1375036382" x="5278.03" y="2762.77" type="priority"/>
    <node id="1375036387" x="5970.25" y="2762.67" type="right_before_left"/>
    <node id="1375036388" x="5086.98" y="2770.71" type="right_before_left"/>
    <node id="1375036389" x="5554.04" y="2765.72" type="priority"/>
    <node id="1375036405" x="5328.12" y="2778.66" type="priority"/>
    <node id="1375036407" x="5373.00" y="2780.61" type="dead_end"/>
    <node id="1375036409" x="6006.72" y="2780.72" type="priority"/>
    <node id="1375036412" x="5858.58" y="2783.09" type="right_before_left"/>
    <node id="1375036414" x="5599.81" y="2784.42" type="priority"/>
    <node id="1375036415" x="5684.16" y="2783.80" type="right_before_left"/>
    <node id="1375036419" x="5784.39" y="2785.70" type="right_before_left"/>
    <node id="1375036420" x="5001.71" y="2793.02" type="dead_end"/>
    <node id="1375036426" x="5162.90" y="2796.14" type="priority"/>
    <node id="1375036428" x="5309.02" y="2795.97" type="dead_end"/>
    <node id="1375036429" x="5687.71" y="2796.95" type="right_before_left"/>
    <node id="1375036431" x="5566.22" y="2797.63" type="right_before_left"/>
    <node id="1375036434" x="5317.16" y="2801.73" type="right_before_left"/>
    <node id="1375036436" x="5737.14" y="2800.03" type="priority"/>
    <node id="1375036437" x="5441.14" y="2802.96" type="priority"/>
    <node id="1375036446" x="5646.91" y="2808.65" type="priority"/>
    <node id="1375036450" x="5220.12" y="2814.90" type="right_before_left"/>
    <node id="1375036454" x="5692.31" y="2813.27" type="right_before_left"/>
    <node id="1375036455" x="5909.99" y="2813.88" type="priority"/>
    <node id="1375036457" x="5567.98" y="2815.93" type="right_before_left"/>
    <node id="1375036459" x="5382.94" y="2818.11" type="priority"/>
    <node id="1375036460" x="5795.94" y="2816.94" type="right_before_left"/>
    <node id="1375036469" x="5425.37" y="2824.78" type="right_before_left"/>
    <node id="1375036471" x="5305.24" y="2825.97" type="priority"/>
    <node id="1375036473" x="5905.75" y="2826.09" type="right_before_left"/>
    <node id="1375036477" x="5302.76" y="2831.01" type="right_before_left"/>
    <node id="1375036482" x="5512.45" y="2832.54" type="right_before_left"/>
    <node id="1375036485" x="5357.39" y="2840.86" type="right_before_left"/>
    <node id="1375036491" x="5829.47" y="2846.09" type="priority"/>
    <node id="1375036492" x="5454.75" y="2852.85" type="right_before_left"/>
    <node id="1375036494" x="5048.65" y="2855.06" type="priority"/>
    <node id="1375036495" x="5913.29" y="2851.44" type="priority"/>
    <node id="1375036496" x="5803.66" y="2853.82" type="right_before_left"/>
    <node id="1375036497" x="5656.33" y="2856.02" type="priority"/>
    <node id="1375036498" x="5786.25" y="2859.04" type="priority"/>
    <node id="1375036499" x="5772.14" y="2863.01" type="dead_end"/>
    <node id="1375036500" x="5918.34" y="2868.18" type="priority"/>
    <node id="1375036501" x="5748.74" y="2869.60" type="priority"/>
    <node id="1375036502" x="5342.00" y="2871.70" type="right_before_left"/>
    <node id="1375036505" x="5258.38" y="2874.54" type="priority"/>
    <node id="1375036506" x="5708.15" y="2875.47" type="right_before_left"/>
    <node id="1375036511" x="5399.46" y="2882.51" type="priority"/>
    <node id="1375036513" x="5276.73" y="2886.92" type="right_before_left"/>
    <node id="1375036515" x="5377.81" y="2888.50" type="right_before_left"/>
    <node id="1375036517" x="5666.12" y="2890.38" type="right_before_left"/>
    <node id="1375036519" x="5780.24" y="2891.08" type="priority"/>
    <node id="1375036523" x="5629.53" y="2901.23" type="priority"/>
    <node id="1375036531" x="5320.93" y="2915.22" type="right_before_left"/>
    <node id="1375036532" x="5244.92" y="2912.04" type="right_before_left"/>
    <node id="1375036543" x="5442.53" y="2946.26" type="priority"/>
    <node id="1375036544" x="5332.29" y="2957.62" type="right_before_left"/>
    <node id="1375036545" x="5549.53" y="2957.86" type="right_before_left"/>
    <node id="1375036553" x="5320.09" y="2981.29" type="right_before_left"/>
    <node id="1375036554" x="5210.75" y="2989.97" type="right_before_left"/>
    <node id="1375036558" x="5202.74" y="3006.57" type="right_before_left"/>
    <node id="1375036561" x="5200.96" y="3012.36" type="right_before_left"/>
    <node id="1375036566" x="5314.34" y="3022.91" type="priority"/>
    <node id="1375036569" x="5195.72" y="3024.87" type="right_before_left"/>
    <node id="1375036572" x="5190.52" y="3037.69" type="priority"/>
    <node id="1375036573" x="5177.35" y="3065.24" type="priority"/>
    <node id="1375036577" x="5169.50" y="3089.00" type="priority"/>
    <node id="1390128553" x="5725.46" y="2976.27" type="right_before_left"/>
    <node id="1390128560" x="5869.63" y="3003.83" type="right_before_left"/>
    <node id="1390128565" x="5731.45" y="3014.81" type="right_before_left"/>
    <node id="1390128568" x="5828.40" y="3028.76" type="priority"/>
    <node id="1390128569" x="5915.90" y="3041.29" type="priority"/>
    <node id="1390128570" x="5702.07" y="3051.94" type="right_before_left"/>
    <node id="1390128583" x="5879.10" y="3084.41" type="priority"/>
    <node id="1390128587" x="5862.97" y="3097.75" type="right_before_left"/>
    <node id="1390128588" x="5970.69" y="3098.95" type="priority"/>
    <node id="1390128591" x="5263.87" y="3105.46" type="priority"/>
    <node id="1390128595" x="5832.16" y="3116.80" type="right_before_left"/>
    <node id="1390128599" x="5372.88" y="3124.23" type="right_before_left"/>
    <node id="1390128602" x="6036.74" y="3134.51" type="priority"/>
    <node id="1390128603" x="5194.45" y="3139.70" type="right_before_left"/>
    <node id="1390128607" x="5762.88" y="3146.06" type="right_before_left"/>
    <node id="1390128609" x="5400.42" y="3149.67" type="priority"/>
    <node id="1390128610" x="5157.02" y="3152.01" type="priority"/>
    <node id="1390128617" x="5729.91" y="3160.54" type="priority"/>
    <node id="1390128640" x="5291.96" y="3177.39" type="right_before_left"/>
    <node id="1390128648" x="5284.10" y="3179.72" type="right_before_left"/>
    <node id="1390128649" x="5536.11" y="3178.96" type="dead_end"/>
    <node id="1390128670" x="5628.58" y="3197.02" type="dead_end"/>
    <node id="1390128671" x="5402.45" y="3198.14" type="dead_end"/>
    <node id="1390128691" x="5443.08" y="3214.81" type="dead_end"/>
    <node id="1390128695" x="5841.02" y="3216.54" type="right_before_left"/>
    <node id="1390128696" x="5302.34" y="3218.76" type="dead_end"/>
    <node id="1390128698" x="5415.20" y="3219.86" type="dead_end"/>
    <node id="1390128701" x="4798.25" y="3224.14" type="priority"/>
    <node id="1390128703" x="5391.98" y="3226.83" type="dead_end"/>
    <node id="1390128713" x="5418.90" y="3227.77" type="priority"/>
    <node id="1390128725" x="5696.96" y="3236.36" type="dead_end"/>
    <node id="1390128727" x="5686.83" y="3235.72" type="dead_end"/>
    <node id="1390128736" x="5765.39" y="3238.63" type="priority"/>
    <node id="1390128738" x="5680.99" y="3240.46" type="dead_end"/>
    <node id="1390128742" x="5839.28" y="3240.27" type="priority"/>
    <node id="1390128747" x="5374.48" y="3246.50" type="dead_end"/>
    <node id="1390128756" x="5173.09" y="3259.18" type="priority"/>
    <node id="1390128774" x="5762.65" y="3263.82" type="right_before_left"/>
    <node id="1390128780" x="4697.20" y="3274.52" type="priority"/>
    <node id="1390128798" x="4795.52" y="3287.28" type="priority"/>
    <node id="1390128799" x="5688.15" y="3284.52" type="priority"/>
    <node id="1390128800" x="4853.21" y="3288.83" type="priority"/>
    <node id="1390128801" x="5601.65" y="3288.89" type="right_before_left"/>
    <node id="1390128806" x="5332.57" y="3289.55" type="dead_end"/>
    <node id="1390128810" x="5381.41" y="3291.00" type="right_before_left"/>
    <node id="1390128816" x="5180.13" y="3295.58" type="priority"/>
    <node id="1390128828" x="5362.08" y="3305.08" type="priority"/>
    <node id="1390128831" x="5302.71" y="3311.66" type="dead_end"/>
    <node id="1390128839" x="5123.00" y="3313.64" type="dead_end"/>
    <node id="1390128846" x="5918.76" y="3313.53" type="priority"/>
    <node id="1390128855" x="5523.49" y="3321.54" type="right_before_left"/>
    <node id="1390128859" x="5327.05" y="3330.98" type="priority"/>
    <node id="1390128860" x="5430.44" y="3332.75" type="priority"/>
    <node id="1390128862" x="5435.02" y="3333.53" type="priority"/>
    <node id="1390128864" x="5412.96" y="3334.05" type="right_before_left"/>
    <node id="1390128866" x="5320.35" y="3335.97" type="right_before_left"/>
    <node id="1390128870" x="4685.06" y="3342.46" type="right_before_left"/>
    <node id="1390128871" x="5709.48" y="3339.50" type="priority"/>
    <node id="1390128875" x="5190.76" y="3348.86" type="priority"/>
    <node id="1390128880" x="5279.48" y="3366.45" type="right_before_left"/>
    <node id="1390128881" x="5286.48" y="3373.22" type="right_before_left"/>
    <node id="1390128883" x="5878.96" y="3370.89" type="priority"/>
    <node id="1390128885" x="5351.34" y="3379.34" type="right_before_left"/>
    <node id="1390128887" x="5233.68" y="3379.56" type="priority"/>
    <node id="1390128893" x="5337.05" y="3385.19" type="priority"/>
    <node id="1390128896" x="5728.36" y="3390.13" type="priority"/>
    <node id="1390128897" x="5428.19" y="3392.29" type="priority"/>
    <node id="1390128899" x="4781.55" y="3398.27" type="priority"/>
    <node id="1390128900" x="4644.84" y="3405.81" type="right_before_left"/>
    <node id="1390128901" x="4605.24" y="3405.55" type="priority"/>
    <node id="1390128905" x="5496.42" y="3404.89" type="priority"/>
    <node id="1390128907" x="5515.55" y="3414.66" type="priority"/>
    <node id="1390128909" x="4671.11" y="3421.08" type="right_before_left"/>
    <node id="1390128910" x="4644.56" y="3444.22" type="priority"/>
    <node id="1390128912" x="5835.60" y="3424.96" type="priority"/>
    <node id="1390128918" x="5334.13" y="3432.39" type="priority"/>
    <node id="1390128920" x="5743.16" y="3435.28" type="priority"/>
    <node id="1390128921" x="4870.39" y="3449.77" type="priority"/>
    <node id="1390128923" x="5507.78" y="3450.42" type="priority"/>
    <node id="1390128924" x="4744.12" y="3462.75" type="priority"/>
    <node id="1390128925" x="4606.48" y="3479.74" type="priority"/>
    <node id="1390128927" x="4646.20" y="3495.88" type="right_before_left"/>
    <node id="1390128928" x="4951.90" y="3496.37" type="right_before_left"/>
    <node id="1390128930" x="4666.75" y="3506.93" type="right_before_left"/>
    <node id="1390128931" x="4641.09" y="3512.99" type="priority"/>
    <node id="1390128932" x="5022.25" y="3513.03" type="right_before_left"/>
    <node id="1390128933" x="4834.17" y="3514.84" type="priority"/>
    <node id="1390128934" x="4979.04" y="3519.95" type="priority"/>
    <node id="1390128936" x="4703.59" y="3527.98" type="priority"/>
    <node id="1390128937" x="5008.99" y="3536.82" type="right_before_left"/>
    <node id="1390128938" x="5031.11" y="3549.47" type="priority"/>
    <node id="1390128939" x="4914.48" y="3561.50" type="right_before_left"/>
    <node id="1390128941" x="4934.82" y="3574.27" type="priority"/>
    <node id="1390128942" x="4794.37" y="3578.52" type="priority"/>
    <node id="1390128943" x="4595.69" y="3584.90" type="right_before_left"/>
    <node id="1390128948" x="5033.39" y="3588.50" type="right_before_left"/>
    <node id="1390128953" x="4968.35" y="3597.24" type="right_before_left"/>
    <node id="1390128955" x="4983.31" y="3602.10" type="right_before_left"/>
    <node id="1390128957" x="5037.88" y="3611.90" type="priority"/>
    <node id="1390128964" x="4984.49" y="3620.43" type="right_before_left"/>
    <node id="1390128966" x="4976.03" y="3622.23" type="right_before_left"/>
    <node id="1390128968" x="4877.28" y="3626.23" type="right_before_left"/>
    <node id="1390128972" x="4758.24" y="3644.87" type="priority"/>
    <node id="1390128974" x="5021.64" y="3643.00" type="priority"/>
    <node id="1390128975" x="4562.52" y="3647.89" type="priority"/>
    <node id="1390128983" x="4950.61" y="3665.99" type="right_before_left"/>
    <node id="1390128985" x="5000.66" y="3675.87" type="priority"/>
    <node id="1390128988" x="4987.20" y="3685.28" type="right_before_left"/>
    <node id="1390128989" x="4840.07" y="3691.57" type="right_before_left"/>
    <node id="1390128993" x="4421.43" y="3718.89" type="right_before_left"/>
    <node id="1390129010" x="4508.13" y="3763.18" type="priority"/>
    <node id="1390129014" x="4682.20" y="3780.15" type="priority"/>
    <node id="1390129017" x="4762.51" y="3826.37" type="right_before_left"/>
    <node id="1390129018" x="4642.33" y="3844.95" type="priority"/>
    <node id="1390129019" x="4509.39" y="3854.77" type="priority"/>
    <node id="1390129020" x="4724.88" y="3891.76" type="right_before_left"/>
    <node id="1390129040" x="4606.24" y="3910.69" type="priority"/>
    <node id="1390129043" x="4502.41" y="3939.20" type="priority"/>
    <node id="1390129044" x="4570.65" y="3975.48" type="priority"/>
    <node id="1390129046" x="4650.02" y="4022.13" type="right_before_left"/>
    <node id="1390129047" x="4507.53" y="4023.00" type="priority"/>
    <node id="1390129057" x="4569.83" y="4061.83" type="priority"/>
    <node id="1390135584" x="4099.16" y="3393.64" type="priority"/>
    <node id="1390135587" x="4307.39" y="3416.49" type="priority"/>
    <node id="1390135589" x="4403.59" y="3433.29" type="priority"/>
    <node id="1390135591" x="4342.49" y="3522.31" type="right_before_left"/>
    <node id="1390135598" x="4180.59" y="3572.78" type="right_before_left"/>
    <node id="1403861528" x="3232.14" y="3461.47" type="priority"/>
    <node id="1403861532" x="3237.88" y="3466.81" type="priority"/>
    <node id="1403861552" x="2389.85" y="3958.05" type="right_before_left"/>
    <node id="1428043509" x="4511.31" y="2709.99" type="dead_end"/>
    <node id="1428043525" x="4499.22" y="2725.00" type="dead_end"/>
    <node id="1428043527" x="4484.90" y="2727.57" type="dead_end"/>
    <node id="1428043528" x="4479.29" y="2729.69" type="dead_end"/>
    <node id="1428043538" x="4504.49" y="2741.21" type="dead_end"/>
    <node id="1428043547" x="4545.77" y="2745.20" type="priority"/>
    <node id="1428043559" x="4503.25" y="2755.05" type="priority"/>
    <node id="1428043565" x="4519.94" y="2760.45" type="priority"/>
    <node id="1428043575" x="4498.78" y="2765.51" type="right_before_left"/>
    <node id="1428043577" x="4446.59" y="2772.29" type="dead_end"/>
    <node id="1428043579" x="4514.55" y="2775.32" type="priority"/>
    <node id="1428043580" x="4403.24" y="2782.97" type="dead_end"/>
    <node id="1428043591" x="4473.51" y="2788.82" type="priority"/>
    <node id="1428043592" x="4595.72" y="2788.80" type="priority"/>
    <node id="1428043594" x="4409.72" y="2789.98" type="dead_end"/>
    <node id="1428043596" x="4612.26" y="2789.45" type="priority"/>