<edges xmlns:xsi="http://www.w3.org/2001/XMLSchema-instance" version="1.20" xsi:noNamespaceSchemaLocation="http://sumo.dlr.de/xsd/edges_file.xsd">
    <location netOffset="-471823.31,-5397684.60" convBoundary="0.00,0.00,8276.52,6939.14" origBoundary="2.616508,48.731701,2.729700,48.794092" projParameter="+proj=utm +zone=31 +ellps=WGS84 +datum=WGS84 +units=m +no_defs" />

    <edge id="-101086967#0" from="6263483200" to="302715440" priority="11" type="highway.secondary" numLanes="1" speed="25.00" disallow="tram rail_urban rail rail_electric rail_fast ship container cable_car subway aircraft wheelchair scooter drone">
        <param key="ref" value="D 350" />
    </edge>
    <edge id="-101086967#1" from="3339721697" to="6263483200" priority="11" type="highway.secondary" numLanes="1" speed="25.00" disallow="tram rail_urban rail rail_electric rail_fast ship container cable_car subway aircraft wheelchair scooter drone">
        <param key="ref" value="D 350" />
    </edge>
    <edge id="-101086967#2" from="3339721696" to="3339721697" priority="11" type="highway.secondary" numLanes="1" speed="25.00" disallow="tram rail_urban rail rail_electric rail_fast ship container cable_car subway aircraft wheelchair scooter drone">
        <param key="ref" value="D 350" />
    </edge>
    <edge id="-102309662" from="459461114" to="459461100" priority="3" type="highway.residential" numLanes="1" speed="8.33" shape="3815.72,3141.06 3812.60,3226.97 3812.47,3230.32" disallow="tram rail_urban rail rail_electric rail_fast ship container cable_car subway aircraft wheelchair scooter drone" />
    <edge id="-102309663#0" from="1180955428" to="459399235" priority="10" type="highway.tertiary" numLanes="1" speed="13.89" shape="4049.66,3133.17 4051.07,3100.14 4052.11,3077.09 4053.03,3056.79" disallow="tram rail_urban rail rail_electric rail_fast ship container cable_car subway aircraft wheelchair scooter drone">
        <param key="ref" value="D 35" />
    </edge>
    <edge id="-102309663#1" from="459399243" to="1180955428" priority="10" type="highway.tertiary" numLanes="1" speed="13.89" shape="4040.75,3162.20 4042.75,3158.99 4044.87,3155.12 4046.10,3152.19 4047.32,3148.50 4048.76,3142.02 4049.66,3133.17" disallow="tram rail_urban rail rail_electric rail_fast ship container cable_car subway aircraft wheelchair scooter drone">
        <param key="ref" value="D 35" />
    </edge>
    <edge id="-102309663#2" from="459399246" to="459399243" priority="10" type="highway.tertiary" numLanes="1" speed="13.89" shape="4025.88,3192.30 4026.47,3187.45 4027.00,3185.01 4029.55,3178.00 4035.32,3169.56 4040.75,3162.20" disallow="tram rail_urban rail rail_electric rail_fast ship container cable_car subway aircraft wheelchair scooter drone">
        <param key="ref" value="D 35" />
    </edge>
    <edge id="-102309663#3" from="459399247" to="459399246" priority="10" type="highway.tertiary" numLanes="1" speed="13.89" shape="4021.45,3240.92 4023.20,3225.79 4025.88,3192.30" disallow="tram rail_urban rail rail_electric rail_fast ship container cable_car subway aircraft wheelchair scooter drone">
        <param key="ref" value="D 35" />
    </edge>
    <edge id="-102309663#4" from="459448741" to="459399247" priority="10" type="highway.tertiary" numLanes="1" speed="13.89" shape="4019.50,3259.05 4020.52,3248.69 4021.45,3240.92" disallow="tram rail_urban rail rail_electric rail_fast ship container cable_car subway aircraft wheelchair scooter drone">
        <param key="ref" value="D 35" />
    </edge>
    <edge id="-102309663#5" from="459453997" to="459448741" priority="10" type="highway.tertiary" numLanes="1" speed="13.89" shape="4016.08,3410.47 4015.55,3406.96 4015.17,3404.49 4016.83,3331.44 4019.15,3264.72 4019.50,3259.05" disallow="tram rail_urban rail rail_electric rail_fast ship container cable_car subway aircraft wheelchair scooter drone">
        <param key="ref" value="D 35" />
    </edge>
    <edge id="-104570227" from="1206499402" to="1206499404" priority="3" type="highway.residential" numLanes="1" speed="8.33" shape="2476.22,2561.62 2465.52,2566.71 2444.14,2597.15" disallow="tram rail_urban rail rail_electric rail_fast ship container cable_car subway aircraft wheelchair scooter drone" />
    <edge id="-104570229" from="1206499387" to="1206499362" priority="3" type="highway.residential" numLanes="1" speed="8.33" shape="2512.37,2678.46 2505.52,2689.06 2489.80,2713.50 2475.99,2712.77" disallow="tram rail_urban rail rail_electric rail_fast ship container cable_car subway aircraft wheelchair scooter drone" />
    <edge id="-1077416247" from="9878748276" to="459802345" priority="3" type="highway.residential" numLanes="1" speed="13.89" disallow="tram rail_urban rail rail_electric rail_fast ship container cable_car subway aircraft wheelchair scooter drone" />
    <edge id="-1104340080" from="1390128864" to="1390128860" priority="3" type="highway.residential" numLanes="1" speed="8.33" shape="5412.96,3334.05 5419.77,3332.58 5430.44,3332.75" disallow="tram rail_urban rail rail_electric rail_fast ship container cable_car subway aircraft wheelchair scooter drone" />
    <edge id="-123245584#0" from="1375036554" to="1375036558" priority="3" type="highway.residential" numLanes="1" speed="8.33" shape="5210.75,2989.97 5204.87,3002.47 5202.74,3006.57" disallow="tram rail_urban rail rail_electric rail_fast ship container cable_car subway aircraft wheelchair scooter drone" />
    <edge id="-123245584#1" from="1375036532" to="1375036554" priority="3" type="highway.residential" numLanes="1" speed="8.33" shape="5244.92,2912.04 5239.76,2916.10 5232.68,2929.68 5214.24,2967.88 5210.75,2989.97" disallow="tram rail_urban rail rail_electric rail_fast ship container cable_car subway aircraft wheelchair scooter drone" />
    <edge id="-123245584#10" from="1375036234" to="1375036332" priority="3" type="highway.residential" numLanes="1" speed="8.33" disallow="tram rail_urban rail rail_electric rail_fast ship container cable_car subway aircraft wheelchair scooter drone" />
    <edge id="-123245584#2" from="2285908066" to="1375036532" priority="3" type="highway.residential" numLanes="1" speed="8.33" disallow="tram rail_urban rail rail_electric rail_fast ship container cable_car subway aircraft wheelchair scooter drone" />
    <edge id="-123245584#3" from="1375036513" to="2285908066" priority="3" type="highway.residential" numLanes="1" speed="8.33" disallow="tram rail_urban rail rail_electric rail_fast ship container cable_car subway aircraft wheelchair scooter drone" />
    <edge id="-123245584#4" from="1375036477" to="1375036513" priority="3" type="highway.residential" numLanes="1" speed="8.33" shape="5302.76,2831.01 5279.41,2881.23 5276.73,2886.92" disallow="tram rail_urban rail rail_electric rail_fast ship container cable_car subway aircraft wheelchair scooter drone" />
    <edge id="-123245584#5" from="1375036471" to="1375036477" priority="3" type="highway.residential" numLanes="1" speed="8.33" disallow="tram rail_urban rail rail_electric rail_fast ship container cable_car subway aircraft wheelchair scooter drone" />
    <edge id="-123245584#6" from="1375036434" to="1375036471" priority="3" type="highway.residential" numLanes="1" speed="8.33" disallow="tram rail_urban rail rail_electric rail_fast ship container cable_car subway aircraft wheelchair scooter drone" />
    <edge id="-123245584#7" from="1375036405" to="1375036434" priority="3" type="highway.residential" numLanes="1" speed="8.33" shape="5328.12,2778.66 5324.73,2785.99 5323.69,2788.07 5317.16,2801.73" disallow="tram rail_urban rail rail_electric rail_fast ship container cable_car subway aircraft wheelchair scooter drone" />
    <edge id="-123245584#8" from="2285908074" to="1375036405" priority="3" type="highway.residential" numLanes="1" speed="8.33" shape="5328.81,2745.71 5333.03,2760.91 5333.05,2767.50 5328.12,2778.66" disallow="tram rail_urban rail rail_electric rail_fast ship container cable_car subway aircraft wheelchair scooter drone" />
    <edge id="-123245584#9" from="1375036332" to="2285908074" priority="3" type="highway.residential" numLanes="1" speed="8.33" shape="5325.98,2719.44 5324.81,2721.62 5324.34,2722.71 5324.00,2723.80 5324.02,2725.37 5324.27,2727.05 5328.81,2745.71" disallow="tram rail_urban rail rail_electric rail_fast ship container cable_car subway aircraft wheelchair scooter drone" />
    <edge id="-123245587#0" from="1375036502" to="1375036531" priority="3" type="highway.residential" numLanes="1" speed="8.33" disallow="tram rail_urban rail rail_electric rail_fast ship container cable_car subway aircraft wheelchair scooter drone" />
    <edge id="-123245587#1" from="1375036485" to="1375036502" priority="3" type="highway.residential" numLanes="1" speed="8.33" disallow="tram rail_urban rail rail_electric rail_fast ship container cable_car subway aircraft wheelchair scooter drone" />
    <edge id="-123245587#2" from="1375036459" to="1375036485" priority="3" type="highway.residential" numLanes="1" speed="8.33" shape="5382.94,2818.11 5368.76,2822.68 5364.54,2826.54 5357.39,2840.86" disallow="tram rail_urban rail rail_electric rail_fast ship container cable_car subway aircraft wheelchair scooter drone" />
    <edge id="-123245587#3" from="1375036469" to="1375036459" priority="3" type="highway.residential" numLanes="1" speed="8.33" shape="5425.37,2824.78 5408.94,2813.09 5404.31,2812.12 5382.94,2818.11" disallow="tram rail_urban rail rail_electric rail_fast ship container cable_car subway aircraft wheelchair scooter drone" />
    <edge id="-123245587#4" from="1375036492" to="1375036469" priority="3" type="highway.residential" numLanes="1" speed="8.33" shape="5454.75,2852.85 5453.92,2848.69 5453.14,2846.65 5452.14,2845.01 5450.97,2843.64 5425.37,2824.78" disallow="tram rail_urban rail rail_electric rail_fast ship container cable_car subway aircraft wheelchair scooter drone" />
    <edge id="-123245592#0" from="1375036419" to="1375036326" priority="3" type="highway.residential" numLanes="1" speed="8.33" shape="5784.39,2785.70 5771.99,2744.99 5771.77,2739.39 5773.92,2734.85 5778.25,2731.30 5828.42,2717.37" disallow="tram rail_urban rail rail_electric rail_fast ship container cable_car subway aircraft wheelchair scooter drone" />
    <edge id="-123245592#1" from="1375036460" to="1375036419" priority="3" type="highway.residential" numLanes="1" speed="8.33" shape="5795.94,2816.94 5793.69,2814.76 5791.98,2812.56 5784.39,2785.70" disallow="tram rail_urban rail rail_electric rail_fast ship container cable_car subway aircraft wheelchair scooter drone" />
    <edge id="-123245592#2" from="1375036412" to="1375036460" priority="3" type="highway.residential" numLanes="1" speed="8.33" shape="5858.58,2783.09 5848.57,2798.75 5844.32,2803.47 5839.48,2806.99 5801.38,2818.15 5795.94,2816.94" disallow="tram rail_urban rail rail_electric rail_fast ship container cable_car subway aircraft wheelchair scooter drone" />
    <edge id="-123245593" from="1375036163" to="1375036221" priority="3" type="highway.residential" numLanes="1" speed="8.33" disallow="tram rail_urban rail rail_electric rail_fast ship container cable_car subway aircraft wheelchair scooter drone" />
    <edge id="-123245595#0" from="1375036543" to="1375036492" priority="3" type="highway.residential" numLanes="1" speed="8.33" shape="5442.53,2946.26 5459.54,2941.44 5461.87,2939.43 5463.76,2937.10 5471.78,2922.12 5472.62,2919.13 5473.04,2915.93 5454.75,2852.85" disallow="tram rail_urban rail rail_electric rail_fast ship container cable_car subway aircraft wheelchair scooter drone" />
    <edge id="-123245595#1" from="1375036544" to="1375036543" priority="3" type="highway.residential" numLanes="1" speed="8.33" shape="5332.29,2957.62 5338.45,2960.46 5356.56,2968.96 5360.00,2969.54 5363.74,2968.65 5442.53,2946.26" disallow="tram rail_urban rail rail_electric rail_fast ship container cable_car subway aircraft wheelchair scooter drone" />
    <edge id="-123245595#2" from="1375036531" to="1375036544" priority="3" type="highway.residential" numLanes="1" speed="8.33" disallow="tram rail_urban rail rail_electric rail_fast ship container cable_car subway aircraft wheelchair scooter drone" />
    <edge id="-123245595#3" from="1375036513" to="1375036531" priority="3" type="highway.residential" numLanes="1" speed="8.33" shape="5276.73,2886.92 5281.42,2890.96 5317.17,2908.01 5318.62,2909.92 5319.52,2911.84 5320.48,2914.12 5320.93,2915.22" disallow="tram rail_urban rail rail_electric rail_fast ship container cable_car subway aircraft wheelchair scooter drone" />
    <edge id="-123245597#0" from="1375036109" to="1375036140" priority="3" type="highway.residential" numLanes="1" speed="8.33" shape="5333.27,2601.78 5336.03,2602.67 5373.34,2619.83" disallow="tram rail_urban rail rail_electric rail_fast ship container cable_car subway aircraft wheelchair scooter drone" />
    <edge id="-123245597#1" from="1375036113" to="1375036109" priority="3" type="highway.residential" numLanes="1" speed="8.33" shape="5301.23,2605.15 5323.01,2601.64 5329.32,2601.22 5333.27,2601.78" disallow="tram rail_urban rail rail_electric rail_fast ship container cable_car subway aircraft wheelchair scooter drone" />
    <edge id="-123245597#2" from="1375036117" to="1375036113" priority="3" type="highway.residential" numLanes="1" speed="8.33" disallow="tram rail_urban rail rail_electric rail_fast ship container cable_car subway aircraft wheelchair scooter drone" />
    <edge id="-123245597#3" from="1375036134" to="1375036117" priority="3" type="highway.residential" numLanes="1" speed="8.33" shape="5224.91,2617.35 5246.27,2613.91 5275.74,2609.24" disallow="tram rail_urban rail rail_electric rail_fast ship container cable_car subway aircraft wheelchair scooter drone" />
    <edge id="-123245597#4" from="1375036161" to="1375036134" priority="3" type="highway.residential" numLanes="1" speed="8.33" shape="5172.52,2628.21 5174.60,2626.42 5177.02,2625.13 5224.91,2617.35" disallow="tram rail_urban rail rail_electric rail_fast ship container cable_car subway aircraft wheelchair scooter drone" />
    <edge id="-123245597#5" from="1375036221" to="1375036161" priority="3" type="highway.residential" numLanes="1" speed="8.33" shape="5162.81,2651.71 5169.37,2632.63 5170.78,2630.34 5172.52,2628.21" disallow="tram rail_urban rail rail_electric rail_fast ship container cable_car subway aircraft wheelchair scooter drone" />
    <edge id="-123245597#6" from="1375036255" to="1375036221" priority="3" type="highway.residential" numLanes="1" speed="8.33" shape="5162.59,2663.72 5161.96,2662.46 5161.46,2661.10 5161.21,2659.62 5161.00,2658.14 5161.21,2656.52 5161.60,2654.92 5162.81,2651.71" disallow="tram rail_urban rail rail_electric rail_fast ship container cable_car subway aircraft wheelchair scooter drone" />
    <edge id="-123245597#7" from="1375036288" to="1375036255" priority="3" type="highway.residential" numLanes="1" speed="8.33" shape="5227.25,2688.07 5166.16,2667.54 5165.17,2666.77 5164.18,2665.73 5162.59,2663.72" disallow="tram rail_urban rail rail_electric rail_fast ship container cable_car subway aircraft wheelchair scooter drone" />
    <edge id="-123245597#8" from="1375036312" to="1375036288" priority="3" type="highway.residential" numLanes="1" speed="8.33" shape="5294.89,2710.86 5238.51,2692.06 5227.25,2688.07" disallow="tram rail_urban rail rail_electric rail_fast ship container cable_car subway aircraft wheelchair scooter drone" />
    <edge id="-123245597#9" from="1375036332" to="1375036312" priority="3" type="highway.residential" numLanes="1" speed="8.33" shape="5325.98,2719.44 5320.97,2719.13 5294.89,2710.86" disallow="tram rail_urban rail rail_electric rail_fast ship container cable_car subway aircraft wheelchair scooter drone" />
    <edge id="-123245600" from="1375036161" to="1375036096" priority="3" type="highway.residential" numLanes="1" speed="8.33" disallow="tram rail_urban rail rail_electric rail_fast ship container cable_car subway aircraft wheelchair scooter drone" />
    <edge id="-123245601" from="1375036492" to="1375036482" priority="3" type="highway.residential" numLanes="1" speed="8.33" shape="5454.75,2852.85 5455.39,2850.82 5456.38,2849.25 5458.12,2848.39 5512.45,2832.54" disallow="tram rail_urban rail rail_electric rail_fast ship container cable_car subway aircraft wheelchair scooter drone" />
    <edge id="-123245602" from="1375036469" to="1375036437" priority="3" type="highway.residential" numLanes="1" speed="8.33" disallow="tram rail_urban rail rail_electric rail_fast ship container cable_car subway aircraft wheelchair scooter drone" />
    <edge id="-123245603#0" from="1375036006" to="1375036004" priority="3" type="highway.residential" numLanes="1" speed="8.33" shape="5666.87,2491.97 5669.40,2490.37 5696.95,2481.92" disallow="tram rail_urban rail rail_electric rail_fast ship container cable_car subway aircraft wheelchair scooter drone" />
    <edge id="-123245603#1" from="1375036014" to="1375036006" priority="3" type="highway.residential" numLanes="1" speed="8.33" shape="5619.39,2505.79 5655.41,2495.37 5666.87,2491.97" disallow="tram rail_urban rail rail_electric rail_fast ship container cable_car subway aircraft wheelchair scooter drone" />
    <edge id="-123245604" from="4581170391" to="1375036257" priority="3" type="highway.residential" numLanes="1" speed="8.33" shape="5088.57,2699.88 5091.81,2692.59 5088.14,2684.36 5079.89,2666.76" disallow="tram rail_urban rail rail_electric rail_fast ship container cable_car subway aircraft wheelchair scooter drone" />
    <edge id="-123245605" from="1375036517" to="1375036497" priority="3" type="highway.residential" numLanes="1" speed="8.33" disallow="tram rail_urban rail rail_electric rail_fast ship container cable_car subway aircraft wheelchair scooter drone" />
    <edge id="-123245606" from="1375036482" to="1375036457" priority="3" type="highway.residential" numLanes="1" speed="8.33" disallow="tram rail_urban rail rail_electric rail_fast ship container cable_car subway aircraft wheelchair scooter drone" />
    <edge id="-123245607" from="1375036208" to="1375036114" priority="3" type="highway.residential" numLanes="1" speed="8.33" disallow="tram rail_urban rail rail_electric rail_fast ship container cable_car subway aircraft wheelchair scooter drone" />
    <edge id="-123245608" from="1375036358" to="1375036280" priority="3" type="highway.residential" numLanes="1" speed="8.33" shape="5370.71,2739.07 5378.32,2724.00 5385.58,2708.33 5393.37,2691.89 5401.06,2677.17" disallow="tram rail_urban rail rail_electric rail_fast ship container cable_car subway aircraft wheelchair scooter drone" />
    <edge id="-123245609" from="1375036117" to="1375036216" priority="3" type="highway.residential" numLanes="1" speed="8.33" disallow="tram rail_urban rail rail_electric rail_fast ship container cable_car subway aircraft wheelchair scooter drone" />
    <edge id="-123245610" from="1375036277" to="1375036203" priority="3" type="highway.residential" numLanes="1" speed="8.33" disallow="tram rail_urban rail rail_electric rail_fast ship container cable_car subway aircraft wheelchair scooter drone" />
    <edge id="-123245611" from="1375036288" to="1375036360" priority="3" type="highway.residential" numLanes="1" speed="8.33" shape="5227.25,2688.07 5226.56,2691.44 5220.21,2711.24 5213.09,2733.99 5210.82,2740.36" disallow="tram rail_urban rail rail_electric rail_fast ship container cable_car subway aircraft wheelchair scooter drone" />
    <edge id="-123245613" from="1375036113" to="1375036060" priority="3" type="highway.residential" numLanes="1" speed="8.33" disallow="tram rail_urban rail rail_electric rail_fast ship container cable_car subway aircraft wheelchair scooter drone" />
    <edge id="-123245616" from="1375036134" to="1375036072" priority="3" type="highway.residential" numLanes="1" speed="8.33" disallow="tram rail_urban rail rail_electric rail_fast ship container cable_car subway aircraft wheelchair scooter drone" />
    <edge id="-123245619" from="1375036387" to="1375036409" priority="3" type="highway.residential" numLanes="1" speed="8.33" disallow="tram rail_urban rail rail_electric rail_fast ship container cable_car subway aircraft wheelchair scooter drone" />
    <edge id="-123245622" from="1375036303" to="1375036355" priority="3" type="highway.residential" numLanes="1" speed="8.33" disallow="tram rail_urban rail rail_electric rail_fast ship container cable_car subway aircraft wheelchair scooter drone" />
    <edge id="-123245624" from="1375036429" to="1375036446" priority="3" type="highway.residential" numLanes="1" speed="8.33" disallow="tram rail_urban rail rail_electric rail_fast ship container cable_car subway aircraft wheelchair scooter drone" />
    <edge id="-123245625" from="1375036312" to="1375036382" priority="3" type="highway.residential" numLanes="1" speed="8.33" disallow="tram rail_urban rail rail_electric rail_fast ship container cable_car subway aircraft wheelchair scooter drone" />
    <edge id="-123245627" from="1375036426" to="1375036381" priority="3" type="highway.residential" numLanes="1" speed="8.33" disallow="tram rail_urban rail rail_electric rail_fast ship container cable_car subway aircraft wheelchair scooter drone" />
    <edge id="-123245628" from="1375036457" to="1375036431" priority="3" type="highway.residential" numLanes="1" speed="8.33" shape="5567.98,2815.93 5565.23,2804.12 5565.18,2800.67 5566.22,2797.63" disallow="tram rail_urban rail rail_electric rail_fast ship container cable_car subway aircraft wheelchair scooter drone" />
    <edge id="-123245631#0" from="1375036164" to="1375036074" priority="3" type="highway.residential" numLanes="1" speed="8.33" shape="5923.99,2626.72 5914.68,2595.75 5902.61,2553.69 5901.87,2550.59 5900.73,2547.58 5897.46,2541.53 5893.99,2537.63 5889.23,2533.27 5886.25,2530.80 5883.03,2528.72 5878.71,2526.86 5874.15,2525.49 5821.78,2513.36 5815.49,2513.01 5810.20,2515.07 5805.38,2519.85 5781.08,2552.33 5756.34,2584.44" disallow="tram rail_urban rail rail_electric rail_fast ship container cable_car subway aircraft wheelchair scooter drone" />
    <edge id="-123245631#1" from="1375036238" to="1375036164" priority="3" type="highway.residential" numLanes="1" speed="8.33" shape="5935.38,2656.26 5932.39,2653.08 5930.70,2649.28 5923.99,2626.72" disallow="tram rail_urban rail rail_electric rail_fast ship container cable_car subway aircraft wheelchair scooter drone" />
    <edge id="-123245631#2" from="1375036387" to="1375036238" priority="3" type="highway.residential" numLanes="1" speed="8.33" shape="5970.25,2762.67 5987.96,2727.09 5989.25,2723.60 5990.11,2720.02 5990.84,2714.59 5991.09,2712.23 5991.23,2709.59 5991.12,2707.39 5990.90,2705.24 5990.50,2703.13 5989.84,2701.02 5981.42,2672.21 5979.17,2664.19 5976.30,2660.74 5973.52,2658.09 5969.67,2656.54 5966.45,2655.25 5963.56,2655.37 5950.00,2658.95 5948.13,2659.34 5946.11,2659.56 5943.81,2659.40 5941.87,2659.04 5938.60,2658.04 5935.38,2656.26" disallow="tram rail_urban rail rail_electric rail_fast ship container cable_car subway aircraft wheelchair scooter drone" />
    <edge id="-123245631#3" from="1375036455" to="1375036387" priority="3" type="highway.residential" numLanes="1" speed="8.33" shape="5909.99,2813.88 5940.79,2804.47 5945.01,2802.79 5948.64,2800.74 5951.59,2798.35 5953.23,2796.51 5954.70,2794.23 5970.25,2762.67" disallow="tram rail_urban rail rail_electric rail_fast ship container cable_car subway aircraft wheelchair scooter drone" />
    <edge id="-123245631#4" from="10292905504" to="1375036455" priority="3" type="highway.residential" numLanes="1" speed="8.33" disallow="tram rail_urban rail rail_electric rail_fast ship container cable_car subway aircraft wheelchair scooter drone" />
    <edge id="-123245632#0" from="1375036496" to="1375036491" priority="3" type="highway.residential" numLanes="1" speed="8.33" disallow="tram rail_urban rail rail_electric rail_fast ship container cable_car subway aircraft wheelchair scooter drone" />
    <edge id="-123245632#1" from="1375036498" to="1375036496" priority="3" type="highway.residential" numLanes="1" speed="8.33" disallow="tram rail_urban rail rail_electric rail_fast ship container cable_car subway aircraft wheelchair scooter drone" />
    <edge id="-123245634#0" from="1375036436" to="1375036454" priority="3" type="highway.residential" numLanes="1" speed="8.33" disallow="tram rail_urban rail rail_electric rail_fast ship container cable_car subway aircraft wheelchair scooter drone" />
    <edge id="-123245634#1" from="1375036419" to="1375036436" priority="3" type="highway.residential" numLanes="1" speed="8.33" shape="5784.39,2785.70 5749.98,2796.54 5737.14,2800.03" disallow="tram rail_urban rail rail_electric rail_fast ship container cable_car subway aircraft wheelchair scooter drone" />
    <edge id="-123245635#0" from="1375036170" to="1375036204" priority="3" type="highway.residential" numLanes="1" speed="8.33" disallow="tram rail_urban rail rail_electric rail_fast ship container cable_car subway aircraft wheelchair scooter drone" />
    <edge id="-123245635#1" from="1375036124" to="1375036170" priority="3" type="highway.residential" numLanes="1" speed="8.33" disallow="tram rail_urban rail rail_electric rail_fast ship container cable_car subway aircraft wheelchair scooter drone" />
    <edge id="-123245636" from="1375036506" to="1375036501" priority="3" type="highway.residential" numLanes="1" speed="8.33" shape="5708.15,2875.47 5715.16,2878.69 5748.74,2869.60" disallow="tram rail_urban rail rail_electric rail_fast ship container cable_car subway aircraft wheelchair scooter drone" />
    <edge id="-123245638" from="1375036415" to="1375036374" priority="3" type="highway.residential" numLanes="1" speed="8.33" shape="5684.16,2783.80 5713.77,2775.89 5707.17,2752.52" disallow="tram rail_urban rail rail_electric rail_fast ship container cable_car subway aircraft wheelchair scooter drone" />
    <edge id="-123245639#0" from="1375036515" to="1375036511" priority="3" type="highway.residential" numLanes="1" speed="8.33" disallow="tram rail_urban rail rail_electric rail_fast ship container cable_car subway aircraft wheelchair scooter drone" />
    <edge id="-123245639#1" from="1375036502" to="1375036515" priority="3" type="highway.residential" numLanes="1" speed="8.33" disallow="tram rail_urban rail rail_electric rail_fast ship container cable_car subway aircraft wheelchair scooter drone" />
    <edge id="-123245640#0" from="1375036277" to="1375036301" priority="3" type="highway.residential" numLanes="1" speed="8.33" disallow="tram rail_urban rail rail_electric rail_fast ship container cable_car subway aircraft wheelchair scooter drone" />
    <edge id="-123245640#1" from="1375036230" to="1375036277" priority="3" type="highway.residential" numLanes="1" speed="8.33" disallow="tram rail_urban rail rail_electric rail_fast ship container cable_car subway aircraft wheelchair scooter drone" />
    <edge id="-123245641#0" from="1375036216" to="1375036206" priority="3" type="highway.residential" numLanes="1" speed="8.33" disallow="tram rail_urban rail rail_electric rail_fast ship container cable_car subway aircraft wheelchair scooter drone" />
    <edge id="-123245641#1" from="1375036228" to="1375036216" priority="3" type="highway.residential" numLanes="1" speed="8.33" disallow="tram rail_urban rail rail_electric rail_fast ship container cable_car subway aircraft wheelchair scooter drone" />
    <edge id="-123245644" from="1375036431" to="1375036389" priority="3" type="highway.residential" numLanes="1" speed="8.33" shape="5566.22,2797.63 5562.84,2795.66 5554.04,2765.72" disallow="tram rail_urban rail rail_electric rail_fast ship container cable_car subway aircraft wheelchair scooter drone" />
    <edge id="-123245645" from="1375036460" to="1375036496" priority="3" type="highway.residential" numLanes="1" speed="8.33" shape="5795.94,2816.94 5795.18,2823.72 5803.66,2853.82" disallow="tram rail_urban rail rail_electric rail_fast ship container cable_car subway aircraft wheelchair scooter drone" />
    <edge id="-123245646" from="1375036109" to="1375036057" priority="3" type="highway.residential" numLanes="1" speed="8.33" shape="5333.27,2601.78 5335.70,2596.18 5346.55,2572.03" disallow="tram rail_urban rail rail_electric rail_fast ship container cable_car subway aircraft wheelchair scooter drone" />
    <edge id="-123245647#0" from="4042467628" to="1375036133" priority="3" type="highway.residential" numLanes="1" speed="8.33" shape="5557.84,2646.36 5578.13,2640.75 5600.43,2599.38" disallow="tram rail_urban rail rail_electric rail_fast ship container cable_car subway aircraft wheelchair scooter drone" />
    <edge id="-123245647#1" from="1375036217" to="4042467628" priority="3" type="highway.residential" numLanes="1" speed="8.33" disallow="tram rail_urban rail rail_electric rail_fast ship container cable_car subway aircraft wheelchair scooter drone" />
    <edge id="-123245655#0" from="1375036120" to="1375036094" priority="3" type="highway.residential" numLanes="1" speed="8.33" shape="5836.67,2608.28 5838.57,2607.71 5835.38,2596.42" disallow="tram rail_urban rail rail_electric rail_fast ship container cable_car subway aircraft wheelchair scooter drone" />
    <edge id="-123245655#1" from="1375036144" to="1375036120" priority="3" type="highway.residential" numLanes="1" speed="8.33" shape="5797.89,2622.45 5806.58,2617.18 5836.67,2608.28" disallow="tram rail_urban rail rail_electric rail_fast ship container cable_car subway aircraft wheelchair scooter drone" />
    <edge id="-123245656#0" from="1375036303" to="1375036327" priority="3" type="highway.residential" numLanes="1" speed="8.33" shape="5451.12,2701.09 5477.64,2713.81 5485.91,2718.34" disallow="tram rail_urban rail rail_electric rail_fast ship container cable_car subway aircraft wheelchair scooter drone" />