<?xml version="1.0" encoding="UTF-8"?>

<!-- generated on 2025-04-29 15:50:15 by Eclipse SUMO netconvert Version 1.22.0
<netconvertConfiguration xmlns:xsi="http://www.w3.org/2001/XMLSchema-instance" xsi:noNamespaceSchemaLocation="http://sumo.dlr.de/xsd/netconvertConfiguration.xsd">

    <input>
        <sumo-net-file value="ozoir_la_ferriere/ozoir_la_ferriere.net.xml"/>
    </input>

    <output>
        <plain-output-prefix value="ozoir_la_ferriere/ozoir_la_ferriere"/>
    </output>

    <processing>
        <geometry.min-radius.fix.railways value="false"/>
        <geometry.max-grade.fix value="false"/>
        <offset.disable-normalization value="true"/>
        <lefthand value="0"/>
    </processing>

    <tls_building>
        <tls.ignore-internal-junction-jam value="1"/>
    </tls_building>

    <junctions>
        <no-turnarounds value="true"/>
        <junctions.corner-detail value="5"/>
        <junctions.limit-turn-speed value="5.50"/>
        <rectangular-lane-cut value="0"/>
    </junctions>

    <pedestrian>
        <walkingareas value="0"/>
    </pedestrian>

</netconvertConfiguration>
-->

<connections version="1.20" xmlns:xsi="http://www.w3.org/2001/XMLSchema-instance" xsi:noNamespaceSchemaLocation="http://sumo.dlr.de/xsd/connections_file.xsd">
    <connection from="-1006698787#0" to="1006698787#0" fromLane="0" toLane="0"/>

    <connection from="-1006698787#1" to="-1006698787#0" fromLane="0" toLane="0"/>
    <connection from="-1006698787#1" to="131471161" fromLane="0" toLane="0"/>
    <connection from="-1006698787#1" to="1006698787#1" fromLane="0" toLane="0"/>

    <connection from="-101086967#0" to="-905473831" fromLane="0" toLane="0"/>
    <connection from="-101086967#0" to="27569200" fromLane="0" toLane="0"/>
    <connection from="-101086967#0" to="101086967#0" fromLane="0" toLane="0"/>

    <connection from="-101086967#1" to="-101086967#0" fromLane="0" toLane="0"/>
    <connection from="-101086967#1" to="668845285" fromLane="0" toLane="0"/>

    <connection from="-101086967#2" to="327243737" fromLane="0" toLane="0"/>
    <connection from="-101086967#2" to="-101086967#1" fromLane="0" toLane="0"/>

    <connection from="-1021465697" to="292437773#1" fromLane="0" toLane="0"/>
    <connection from="-1021465697" to="-292437773#0" fromLane="0" toLane="0"/>
    <connection from="-1021465697" to="1021465697" fromLane="0" toLane="0"/>

    <connection from="-102309662" to="38748862#2" fromLane="0" toLane="0"/>
    <connection from="-102309662" to="102309662" fromLane="0" toLane="0"/>

    <connection from="-102309663#0" to="-161688660#3" fromLane="0" toLane="0"/>
    <connection from="-102309663#0" to="172125367#0" fromLane="0" toLane="0"/>
    <connection from="-102309663#0" to="102309663#0" fromLane="0" toLane="0"/>

    <connection from="-102309663#1" to="-129428799" fromLane="0" toLane="0"/>
    <connection from="-102309663#1" to="-102309663#0" fromLane="0" toLane="0"/>
    <connection from="-102309663#1" to="102309663#1" fromLane="0" toLane="0"/>

    <connection from="-102309663#2" to="-102309663#1" fromLane="0" toLane="0"/>
    <connection from="-102309663#2" to="38747976#0" fromLane="0" toLane="0"/>
    <connection from="-102309663#2" to="102309663#2" fromLane="0" toLane="0"/>

    <connection from="-102309663#3" to="-129428802" fromLane="0" toLane="0"/>
    <connection from="-102309663#3" to="-102309663#2" fromLane="0" toLane="0"/>
    <connection from="-102309663#3" to="102309663#3" fromLane="0" toLane="0"/>

    <connection from="-102309663#4" to="-102309663#3" fromLane="0" toLane="0"/>
    <connection from="-102309663#4" to="102309663#4" fromLane="0" toLane="0"/>

    <connection from="-102309663#5" to="-102309663#4" fromLane="0" toLane="0"/>
    <connection from="-102309663#5" to="392167059" fromLane="0" toLane="0"/>
    <connection from="-102309663#5" to="102309663#5" fromLane="0" toLane="0"/>

    <connection from="-1023390767#0" to="444069714#6" fromLane="0" toLane="0"/>
    <connection from="-1023390767#0" to="-444069714#5" fromLane="0" toLane="0"/>
    <connection from="-1023390767#0" to="1023390767#0" fromLane="0" toLane="0"/>

    <connection from="-1023390767#1" to="444069711#6" fromLane="0" toLane="0"/>
    <connection from="-1023390767#1" to="-1023390767#0" fromLane="0" toLane="0"/>
    <connection from="-1023390767#1" to="-444069711#5" fromLane="0" toLane="0"/>
    <connection from="-1023390767#1" to="1023390767#1" fromLane="0" toLane="0"/>

    <connection from="-1029412557#0" to="-24809238#0" fromLane="0" toLane="0"/>
    <connection from="-1029412557#0" to="24809167#0" fromLane="0" toLane="0"/>
    <connection from="-1029412557#0" to="24809238#1" fromLane="0" toLane="0"/>
    <connection from="-1029412557#0" to="1029412557#0" fromLane="0" toLane="0"/>

    <connection from="-1029412557#1" to="-1029412557#0" fromLane="0" toLane="0"/>
    <connection from="-1029412557#1" to="-1077416247" fromLane="0" toLane="0"/>
    <connection from="-1029412557#1" to="1029412557#1" fromLane="0" toLane="0"/>

    <connection from="-1032009139" to="279453329#3" fromLane="0" toLane="0"/>
    <connection from="-1032009139" to="279453315" fromLane="0" toLane="0"/>
    <connection from="-1032009139" to="-279453329#2" fromLane="0" toLane="0"/>
    <connection from="-1032009139" to="1032009139" fromLane="0" toLane="0"/>

    <connection from="-1032009708#0" to="164532864#1" fromLane="0" toLane="0"/>
    <connection from="-1032009708#0" to="-164532864#0" fromLane="0" toLane="0"/>
    <connection from="-1032009708#0" to="1032009708#0" fromLane="0" toLane="0"/>

    <connection from="-1032009708#1" to="-1032009708#0" fromLane="0" toLane="0"/>
    <connection from="-1032009708#1" to="-1032009709" fromLane="0" toLane="0"/>
    <connection from="-1032009708#1" to="1032009708#1" fromLane="0" toLane="0"/>

    <connection from="-1032009709" to="1064945898#0" fromLane="0" toLane="0"/>
    <connection from="-1032009709" to="938575717#1" fromLane="0" toLane="0"/>
    <connection from="-1032009709" to="938575720#0" fromLane="0" toLane="0"/>
    <connection from="-1032009709" to="-938575717#0" fromLane="0" toLane="0"/>

    <connection from="-1032010502" to="78415568#2" fromLane="0" toLane="0"/>
    <connection from="-1032010502" to="-78415568#1" fromLane="0" toLane="0"/>
    <connection from="-1032010502" to="1032010502" fromLane="0" toLane="0"/>

    <connection from="-1038051480" to="1038051481#1" fromLane="0" toLane="0"/>
    <connection from="-1038051480" to="-1038051481#0" fromLane="0" toLane="0"/>
    <connection from="-1038051480" to="1038051480" fromLane="0" toLane="0"/>

    <connection from="-1038051481#0" to="38750605#1" fromLane="0" toLane="0"/>
    <connection from="-1038051481#0" to="-38750605#0" fromLane="0" toLane="0"/>
    <connection from="-1038051481#0" to="1038051481#0" fromLane="0" toLane="0"/>

    <connection from="-1038051481#1" to="-1038051481#0" fromLane="0" toLane="0"/>
    <connection from="-1038051481#1" to="1038051480" fromLane="0" toLane="0"/>
    <connection from="-1038051481#1" to="1038051481#1" fromLane="0" toLane="0"/>

    <connection from="-1038084653" to="-378466309#0" fromLane="0" toLane="0"/>
    <connection from="-1038084653" to="1099950359" fromLane="0" toLane="0"/>
    <connection from="-1038084653" to="378466309#1" fromLane="0" toLane="0"/>
    <connection from="-1038084653" to="1038084653" fromLane="0" toLane="0"/>

    <connection from="-1042696754" to="307738286#3" fromLane="0" toLane="0"/>
    <connection from="-1042696754" to="-307738286#2" fromLane="0" toLane="0"/>
    <connection from="-1042696754" to="1042696754" fromLane="0" toLane="0"/>

    <connection from="-104570227" to="-27569636#0" fromLane="0" toLane="0"/>
    <connection from="-104570227" to="27569636#1" fromLane="0" toLane="0"/>
    <connection from="-104570227" to="104570227" fromLane="0" toLane="0"/>

    <connection from="-104570229" to="104570229" fromLane="0" toLane="0"/>

    <connection from="-1049280072" to="-905492227#0" fromLane="0" toLane="0"/>
    <connection from="-1049280072" to="905492227#1" fromLane="0" toLane="0"/>
    <connection from="-1049280072" to="1049280072" fromLane="0" toLane="0"/>

    <connection from="-1049280073" to="1049280073" fromLane="0" toLane="0"/>

    <connection from="-1056723864" to="-938575717#3" fromLane="0" toLane="0"/>
    <connection from="-1056723864" to="938575717#4" fromLane="0" toLane="0"/>
    <connection from="-1056723864" to="1056723864" fromLane="0" toLane="0"/>

    <connection from="-1057421493#0" to="925566463#1" fromLane="0" toLane="0"/>
    <connection from="-1057421493#0" to="948627269#0" fromLane="0" toLane="0"/>
    <connection from="-1057421493#0" to="-925566463#0" fromLane="0" toLane="0"/>
    <connection from="-1057421493#0" to="1057421493#0" fromLane="0" toLane="0"/>

    <connection from="-1057421493#1" to="-1057421493#0" fromLane="0" toLane="0"/>
    <connection from="-1057421493#1" to="1057421493#1" fromLane="0" toLane="0"/>

    <connection from="-1057746813#0" to="-1057746813#2" fromLane="0" toLane="0"/>
    <connection from="-1057746813#0" to="512042232" fromLane="0" toLane="0"/>
    <connection from="-1057746813#0" to="1057746813#0" fromLane="0" toLane="0"/>

    <connection from="-1057746813#1" to="-1057746813#0" fromLane="0" toLane="0"/>
    <connection from="-1057746813#1" to="1057746813#1" fromLane="0" toLane="0"/>

    <connection from="-1057746813#2" to="-1057746813#1" fromLane="0" toLane="0"/>
    <connection from="-1057746813#2" to="1057746813#2" fromLane="0" toLane="0"/>

    <connection from="-1058219155" to="1058219155" fromLane="0" toLane="0"/>

    <connection from="-1064378892" to="1064378892" fromLane="0" toLane="0"/>

    <connection from="-1064940944#0" to="-175753687#1" fromLane="0" toLane="0"/>
    <connection from="-1064940944#0" to="175753687#2" fromLane="0" toLane="0"/>
    <connection from="-1064940944#0" to="1064940944#0" fromLane="0" toLane="0"/>

    <connection from="-1064940944#1" to="-1064940944#0" fromLane="0" toLane="0"/>
    <connection from="-1064940944#1" to="1064940945" fromLane="0" toLane="0"/>
    <connection from="-1064940944#1" to="1064940944#1" fromLane="0" toLane="0"/>

    <connection from="-1064940945" to="1064940944#1" fromLane="0" toLane="0"/>
    <connection from="-1064940945" to="-1064940944#0" fromLane="0" toLane="0"/>
    <connection from="-1064940945" to="1064940945" fromLane="0" toLane="0"/>

    <connection from="-1064945896" to="-278707420#2" fromLane="0" toLane="0"/>
    <connection from="-1064945896" to="278707420#3" fromLane="0" toLane="0"/>
    <connection from="-1064945896" to="1064945896" fromLane="0" toLane="0"/>

    <connection from="-1064945897" to="932648757#1" fromLane="0" toLane="0"/>
    <connection from="-1064945897" to="-932648757#0" fromLane="0" toLane="0"/>
    <connection from="-1064945897" to="1064945897" fromLane="0" toLane="0"/>

    <connection from="-1064945898#0" to="938575717#1" fromLane="0" toLane="0"/>
    <connection from="-1064945898#0" to="938575720#0" fromLane="0" toLane="0"/>
    <connection from="-1064945898#0" to="-938575717#0" fromLane="0" toLane="0"/>
    <connection from="-1064945898#0" to="1064945898#0" fromLane="0" toLane="0"/>

    <connection from="-1064945898#1" to="-1064945900#1" fromLane="0" toLane="0"/>
    <connection from="-1064945898#1" to="-1064945898#0" fromLane="0" toLane="0"/>
    <connection from="-1064945898#1" to="1064945898#1" fromLane="0" toLane="0"/>

    <connection from="-1064945899" to="-938575721#1" fromLane="0" toLane="0"/>
    <connection from="-1064945899" to="938575721#2" fromLane="0" toLane="0"/>
    <connection from="-1064945899" to="1064945899" fromLane="0" toLane="0"/>

    <connection from="-1064945900#0" to="-938575721#3" fromLane="0" toLane="0"/>
    <connection from="-1064945900#0" to="938575721#4" fromLane="0" toLane="0"/>
    <connection from="-1064945900#0" to="1064945900#0" fromLane="0" toLane="0"/>

    <connection from="-1064945900#1" to="-1064945900#0" fromLane="0" toLane="0"/>
    <connection from="-1064945900#1" to="1064945901" fromLane="0" toLane="0"/>
    <connection from="-1064945900#1" to="1064945900#1" fromLane="0" toLane="0"/>

    <connection from="-1064945901" to="1064945900#1" fromLane="0" toLane="0"/>
    <connection from="-1064945901" to="-1064945900#0" fromLane="0" toLane="0"/>
    <connection from="-1064945901" to="1064945901" fromLane="0" toLane="0"/>

    <connection from="-1064945902#0" to="-281269277#0" fromLane="0" toLane="0"/>
    <connection from="-1064945902#0" to="281269277#1" fromLane="0" toLane="0"/>
    <connection from="-1064945902#0" to="1064945902#0" fromLane="0" toLane="0"/>

    <connection from="-1064945902#1" to="-1064945902#0" fromLane="0" toLane="0"/>
    <connection from="-1064945902#1" to="-1064945902#2" fromLane="0" toLane="0"/>
    <connection from="-1064945902#1" to="1064945902#1" fromLane="0" toLane="0"/>

    <connection from="-1064945902#2" to="-1064945902#1" fromLane="0" toLane="0"/>

    <connection from="-1067675887" to="938575720#1" fromLane="0" toLane="0"/>
    <connection from="-1067675887" to="-938575720#0" fromLane="0" toLane="0"/>
    <connection from="-1067675887" to="1067675887" fromLane="0" toLane="0"/>

    <connection from="-1067675888#0" to="-169957217#0" fromLane="0" toLane="0"/>
    <connection from="-1067675888#0" to="189303212#0" fromLane="0" toLane="0"/>
    <connection from="-1067675888#0" to="169957217#1" fromLane="0" toLane="0"/>
    <connection from="-1067675888#0" to="1067675888#0" fromLane="0" toLane="0"/>

    <connection from="-1067675888#1" to="189303213#2" fromLane="0" toLane="0"/>
    <connection from="-1067675888#1" to="-1067675888#0" fromLane="0" toLane="0"/>
    <connection from="-1067675888#1" to="-189303213#1" fromLane="0" toLane="0"/>
    <connection from="-1067675888#1" to="1067675888#1" fromLane="0" toLane="0"/>

    <connection from="-1067675888#2" to="-1067675888#1" fromLane="0" toLane="0"/>
    <connection from="-1067675888#2" to="-1120859768" fromLane="0" toLane="0"/>
    <connection from="-1067675888#2" to="1067675888#2" fromLane="0" toLane="0"/>

    <connection from="-1073899505#0" to="378466309#2" fromLane="0" toLane="0"/>
    <connection from="-1073899505#0" to="-378466309#1" fromLane="0" toLane="0"/>
    <connection from="-1073899505#0" to="1073899505#0" fromLane="0" toLane="0"/>

    <connection from="-1073899505#1" to="-1073899505#0" fromLane="0" toLane="0"/>
    <connection from="-1073899505#1" to="-1099950359" fromLane="0" toLane="0"/>
    <connection from="-1073899505#1" to="1073899505#1" fromLane="0" toLane="0"/>

    <connection from="-1077416247" to="38772183#1" fromLane="0" toLane="0" visibility="9.00"/>

    <connection from="-1095605321" to="1095605321" fromLane="0" toLane="0"/>

    <connection from="-1095605322" to="25414978#2" fromLane="0" toLane="0"/>
    <connection from="-1095605322" to="-25414978#1" fromLane="0" toLane="0"/>
    <connection from="-1095605322" to="1026232996" fromLane="0" toLane="0"/>

    <connection from="-1098792982#0" to="38749990#3" fromLane="0" toLane="0" visibility="9.00"/>

    <connection from="-1098792982#1" to="-1098792982#0" fromLane="0" toLane="0"/>
    <connection from="-1098792982#1" to="38750025#1" fromLane="0" toLane="0"/>
    <connection from="-1098792982#1" to="1098792982#1" fromLane="0" toLane="0"/>
    <connection from="-1098792982#1" to="-38750025#0" fromLane="0" toLane="0"/>

    <connection from="-1098792982#2" to="482740230#2" fromLane="0" toLane="0"/>
    <connection from="-1098792982#2" to="-1098792982#1" fromLane="0" toLane="0"/>
    <connection from="-1098792982#2" to="-482740230#1" fromLane="0" toLane="0"/>
    <connection from="-1098792982#2" to="1098792982#2" fromLane="0" toLane="0"/>

    <connection from="-1099950359" to="378466309#1" fromLane="0" toLane="0"/>
    <connection from="-1099950359" to="1038084653" fromLane="0" toLane="0"/>
    <connection from="-1099950359" to="-378466309#0" fromLane="0" toLane="0"/>
    <connection from="-1099950359" to="1099950359" fromLane="0" toLane="0"/>

    <connection from="-1104340080" to="-1104340081" fromLane="0" toLane="0"/>
    <connection from="-1104340080" to="1104340080" fromLane="0" toLane="0"/>

    <connection from="-1104340081" to="-125088059#1" fromLane="0" toLane="0" keepClear="0"/>

    <connection from="-1112482534#0" to="632448600#3" fromLane="0" toLane="0"/>
    <connection from="-1112482534#0" to="632448601" fromLane="0" toLane="0"/>
    <connection from="-1112482534#0" to="1112482534#0" fromLane="0" toLane="0"/>

    <connection from="-1112482534#1" to="-1112482534#0" fromLane="0" toLane="0"/>
    <connection from="-1112482534#1" to="-1112482535#1" fromLane="0" toLane="0"/>
    <connection from="-1112482534#1" to="1112482534#1" fromLane="0" toLane="0"/>

    <connection from="-1112482534#2" to="-1112482534#1" fromLane="0" toLane="0"/>
    <connection from="-1112482534#2" to="1112482534#2" fromLane="0" toLane="0"/>

    <connection from="-1112482534#3" to="-1112482534#2" fromLane="0" toLane="0"/>
    <connection from="-1112482534#3" to="1112482534#3" fromLane="0" toLane="0"/>

    <connection from="-1112482534#4" to="-1112482537" fromLane="0" toLane="0"/>
    <connection from="-1112482534#4" to="-1112482534#3" fromLane="0" toLane="0"/>
    <connection from="-1112482534#4" to="1112482534#4" fromLane="0" toLane="0"/>

    <connection from="-1112482534#5" to="-1112482534#4" fromLane="0" toLane="0"/>
    <connection from="-1112482534#5" to="1112482534#5" fromLane="0" toLane="0"/>

    <connection from="-1112482535#0" to="632448600#2" fromLane="0" toLane="0"/>
    <connection from="-1112482535#0" to="1112482535#0" fromLane="0" toLane="0"/>

    <connection from="-1112482535#1" to="-1112482535#0" fromLane="0" toLane="0"/>
    <connection from="-1112482535#1" to="-1112482536#1" fromLane="0" toLane="0"/>
    <connection from="-1112482535#1" to="1112482535#1" fromLane="0" toLane="0"/>

    <connection from="-1112482536#0" to="1117632689" fromLane="0" toLane="0"/>
    <connection from="-1112482536#0" to="1112482536#0" fromLane="0" toLane="0"/>

    <connection from="-1112482536#1" to="-1112482536#0" fromLane="0" toLane="0"/>
    <connection from="-1112482536#1" to="1112482536#1" fromLane="0" toLane="0"/>

    <connection from="-1112482537" to="1117654833#0" fromLane="0" toLane="0"/>
    <connection from="-1112482537" to="632448600#4" fromLane="0" toLane="0"/>
    <connection from="-1112482537" to="1112482537" fromLane="0" toLane="0"/>

    <connection from="-1117632689" to="1112482536#0" fromLane="0" toLane="0"/>
    <connection from="-1117632689" to="1117632689" fromLane="0" toLane="0"/>

    <connection from="-1120129118#0" to="-1120129118#5" fromLane="0" toLane="0"/>
    <connection from="-1120129118#0" to="1120190091#4" fromLane="0" toLane="0"/>
    <connection from="-1120129118#0" to="1120129118#0" fromLane="0" toLane="0"/>
    <connection from="-1120129118#0" to="-1120190091#3" fromLane="0" toLane="0"/>

    <connection from="-1120129118#1" to="-713794661#4" fromLane="0" toLane="0"/>
    <connection from="-1120129118#1" to="1120190091#3" fromLane="0" toLane="0"/>
    <connection from="-1120129118#1" to="-1120129118#0" fromLane="0" toLane="0"/>
    <connection from="-1120129118#1" to="713794661#5" fromLane="0" toLane="0"/>
    <connection from="-1120129118#1" to="1120129118#1" fromLane="0" toLane="0"/>
    <connection from="-1120129118#1" to="-1120190091#2" fromLane="0" toLane="0"/>

    <connection from="-1120129118#2" to="1120190091#2" fromLane="0" toLane="0"/>
    <connection from="-1120129118#2" to="-1120129118#1" fromLane="0" toLane="0"/>
    <connection from="-1120129118#2" to="-1120190091#1" fromLane="0" toLane="0"/>
    <connection from="-1120129118#2" to="1120129118#2" fromLane="0" toLane="0"/>

    <connection from="-1120129118#3" to="-1120129118#2" fromLane="0" toLane="0"/>
    <connection from="-1120129118#3" to="1120190092#3" fromLane="0" toLane="0"/>
    <connection from="-1120129118#3" to="1120129118#3" fromLane="0" toLane="0"/>
    <connection from="-1120129118#3" to="-1120190092#2" fromLane="0" toLane="0"/>

    <connection from="-1120129118#4" to="713794661#4" fromLane="0" toLane="0"/>
    <connection from="-1120129118#4" to="1120190092#2" fromLane="0" toLane="0"/>
    <connection from="-1120129118#4" to="-1120129118#3" fromLane="0" toLane="0"/>
    <connection from="-1120129118#4" to="-713794661#3" fromLane="0" toLane="0"/>
    <connection from="-1120129118#4" to="1120129118#4" fromLane="0" toLane="0"/>
    <connection from="-1120129118#4" to="-1120190092#1" fromLane="0" toLane="0"/>

    <connection from="-1120129118#5" to="1120190092#1" fromLane="0" toLane="0"/>
    <connection from="-1120129118#5" to="-1120129118#4" fromLane="0" toLane="0"/>
    <connection from="-1120129118#5" to="-1120190092#0" fromLane="0" toLane="0"/>
    <connection from="-1120129118#5" to="1120129118#5" fromLane="0" toLane="0"/>

    <connection from="-1120129119#0" to="-1120129119#4" fromLane="0" toLane="0"/>
    <connection from="-1120129119#0" to="1120190091#10" fromLane="0" toLane="0"/>
    <connection from="-1120129119#0" to="1120129119#0" fromLane="0" toLane="0"/>
    <connection from="-1120129119#0" to="-1120190091#9" fromLane="0" toLane="0"/>

    <connection from="-1120129119#1" to="1120190091#9" fromLane="0" toLane="0"/>
    <connection from="-1120129119#1" to="-1120129119#0" fromLane="0" toLane="0"/>
    <connection from="-1120129119#1" to="1117654833#3" fromLane="0" toLane="0"/>
    <connection from="-1120129119#1" to="1120129119#1" fromLane="0" toLane="0"/>
    <connection from="-1120129119#1" to="-1120190091#8" fromLane="0" toLane="0"/>

    <connection from="-1120129119#2" to="1120190091#8" fromLane="0" toLane="0"/>
    <connection from="-1120129119#2" to="-1120129119#1" fromLane="0" toLane="0"/>
    <connection from="-1120129119#2" to="-1120190091#7" fromLane="0" toLane="0"/>
    <connection from="-1120129119#2" to="1120129119#2" fromLane="0" toLane="0"/>

    <connection from="-1120129119#3" to="-1120129119#2" fromLane="0" toLane="0"/>
    <connection from="-1120129119#3" to="1120190091#7" fromLane="0" toLane="0"/>
    <connection from="-1120129119#3" to="1120129119#3" fromLane="0" toLane="0"/>
    <connection from="-1120129119#3" to="-1120190091#6" fromLane="0" toLane="0"/>

    <connection from="-1120129119#4" to="1120190091#6" fromLane="0" toLane="0"/>
    <connection from="-1120129119#4" to="-1120129119#3" fromLane="0" toLane="0"/>
    <connection from="-1120129119#4" to="-1120190091#5" fromLane="0" toLane="0"/>
    <connection from="-1120129119#4" to="1120129119#4" fromLane="0" toLane="0"/>

    <connection from="-1120190091#0" to="-1120190091#11" fromLane="0" toLane="0"/>
    <connection from="-1120190091#0" to="1120190091#12" fromLane="0" toLane="0"/>

    <connection from="-1120190091#1" to="1120190091#1" fromLane="0" toLane="0"/>
    <connection from="-1120190091#1" to="636298703#1" fromLane="0" toLane="0"/>
    <connection from="-1120190091#1" to="-1120190091#0" fromLane="0" toLane="0"/>
    <connection from="-1120190091#1" to="-636298703#0" fromLane="0" toLane="0"/>

    <connection from="-1120190091#10" to="1120129119#0" fromLane="0" toLane="0"/>
    <connection from="-1120190091#10" to="-1120190091#9" fromLane="0" toLane="0"/>
    <connection from="-1120190091#10" to="-1120129119#4" fromLane="0" toLane="0"/>
    <connection from="-1120190091#10" to="1120190091#10" fromLane="0" toLane="0"/>

    <connection from="-1120190091#11" to="-1120190091#10" fromLane="0" toLane="0"/>
    <connection from="-1120190091#11" to="1120190091#11" fromLane="0" toLane="0"/>

    <connection from="-1120190091#2" to="-1120190091#1" fromLane="0" toLane="0"/>
    <connection from="-1120190091#2" to="1120129118#2" fromLane="0" toLane="0"/>
    <connection from="-1120190091#2" to="1120190091#2" fromLane="0" toLane="0"/>
    <connection from="-1120190091#2" to="-1120129118#1" fromLane="0" toLane="0"/>

    <connection from="-1120190091#3" to="713794661#5" fromLane="0" toLane="0"/>
    <connection from="-1120190091#3" to="1120129118#1" fromLane="0" toLane="0"/>
    <connection from="-1120190091#3" to="-1120190091#2" fromLane="0" toLane="0"/>
    <connection from="-1120190091#3" to="-713794661#4" fromLane="0" toLane="0"/>
    <connection from="-1120190091#3" to="1120190091#3" fromLane="0" toLane="0"/>
    <connection from="-1120190091#3" to="-1120129118#0" fromLane="0" toLane="0"/>

    <connection from="-1120190091#4" to="1120129118#0" fromLane="0" toLane="0"/>
    <connection from="-1120190091#4" to="-1120190091#3" fromLane="0" toLane="0"/>
    <connection from="-1120190091#4" to="-1120129118#5" fromLane="0" toLane="0"/>
    <connection from="-1120190091#4" to="1120190091#4" fromLane="0" toLane="0"/>

    <connection from="-1120190091#5" to="632274595#1" fromLane="0" toLane="0"/>
    <connection from="-1120190091#5" to="-1120190091#4" fromLane="0" toLane="0"/>
    <connection from="-1120190091#5" to="-632274595#0" fromLane="0" toLane="0"/>
    <connection from="-1120190091#5" to="1120190091#5" fromLane="0" toLane="0"/>

    <connection from="-1120190091#6" to="-1120190091#5" fromLane="0" toLane="0"/>
    <connection from="-1120190091#6" to="1120129119#4" fromLane="0" toLane="0"/>
    <connection from="-1120190091#6" to="1120190091#6" fromLane="0" toLane="0"/>
    <connection from="-1120190091#6" to="-1120129119#3" fromLane="0" toLane="0"/>

    <connection from="-1120190091#7" to="1120129119#3" fromLane="0" toLane="0"/>
    <connection from="-1120190091#7" to="-1120190091#6" fromLane="0" toLane="0"/>
    <connection from="-1120190091#7" to="-1120129119#2" fromLane="0" toLane="0"/>
    <connection from="-1120190091#7" to="1120190091#7" fromLane="0" toLane="0"/>

    <connection from="-1120190091#8" to="-1120190091#7" fromLane="0" toLane="0"/>
    <connection from="-1120190091#8" to="1120129119#2" fromLane="0" toLane="0"/>
    <connection from="-1120190091#8" to="1120190091#8" fromLane="0" toLane="0"/>
    <connection from="-1120190091#8" to="-1120129119#1" fromLane="0" toLane="0"/>

    <connection from="-1120190091#9" to="1117654833#3" fromLane="0" toLane="0"/>
    <connection from="-1120190091#9" to="1120129119#1" fromLane="0" toLane="0"/>
    <connection from="-1120190091#9" to="-1120190091#8" fromLane="0" toLane="0"/>
    <connection from="-1120190091#9" to="1120190091#9" fromLane="0" toLane="0"/>
    <connection from="-1120190091#9" to="-1120129119#0" fromLane="0" toLane="0"/>

    <connection from="-1120190092#0" to="-1120190092#5" fromLane="0" toLane="0"/>
    <connection from="-1120190092#0" to="1120190092#0" fromLane="0" toLane="0"/>

    <connection from="-1120190092#1" to="-1120190092#0" fromLane="0" toLane="0"/>
    <connection from="-1120190092#1" to="1120129118#5" fromLane="0" toLane="0"/>
    <connection from="-1120190092#1" to="1120190092#1" fromLane="0" toLane="0"/>
    <connection from="-1120190092#1" to="-1120129118#4" fromLane="0" toLane="0"/>

    <connection from="-1120190092#2" to="-713794661#3" fromLane="0" toLane="0"/>
    <connection from="-1120190092#2" to="1120129118#4" fromLane="0" toLane="0"/>
    <connection from="-1120190092#2" to="-1120190092#1" fromLane="0" toLane="0"/>
    <connection from="-1120190092#2" to="713794661#4" fromLane="0" toLane="0"/>
    <connection from="-1120190092#2" to="1120190092#2" fromLane="0" toLane="0"/>
    <connection from="-1120190092#2" to="-1120129118#3" fromLane="0" toLane="0"/>

    <connection from="-1120190092#3" to="1120129118#3" fromLane="0" toLane="0"/>
    <connection from="-1120190092#3" to="-1120190092#2" fromLane="0" toLane="0"/>
    <connection from="-1120190092#3" to="-1120129118#2" fromLane="0" toLane="0"/>
    <connection from="-1120190092#3" to="1120190092#3" fromLane="0" toLane="0"/>

    <connection from="-1120190092#4" to="-1120190092#3" fromLane="0" toLane="0"/>
    <connection from="-1120190092#4" to="1120190092#4" fromLane="0" toLane="0"/>

    <connection from="-1120190092#5" to="713794661#3" fromLane="0" toLane="0"/>
    <connection from="-1120190092#5" to="-1120190092#4" fromLane="0" toLane="0"/>
    <connection from="-1120190092#5" to="-713794661#2" fromLane="0" toLane="0"/>
    <connection from="-1120190092#5" to="1120190092#5" fromLane="0" toLane="0"/>

    <connection from="-1120859768" to="-151220902#3" fromLane="0" toLane="0"/>
    <connection from="-1120859768" to="151220902#4" fromLane="0" toLane="0"/>
    <connection from="-1120859768" to="1120859767" fromLane="0" toLane="0"/>

    <connection from="-1144042703" to="-27569636#1" fromLane="0" toLane="0"/>
    <connection from="-1144042703" to="27569636#2" fromLane="0" toLane="0"/>
    <connection from="-1144042703" to="1144042703" fromLane="0" toLane="0"/>

    <connection from="-1195870657" to="-28744659#0" fromLane="0" toLane="0"/>
    <connection from="-1195870657" to="28744659#1" fromLane="0" toLane="0"/>
    <connection from="-1195870657" to="1195870657" fromLane="0" toLane="0"/>

    <connection from="-1195870658" to="283268937" fromLane="0" toLane="0"/>
    <connection from="-1195870658" to="283268936" fromLane="0" toLane="0"/>
    <connection from="-1195870658" to="1195870658" fromLane="0" toLane="0"/>

    <connection from="-1195870659" to="282588693" fromLane="0" toLane="0"/>
    <connection from="-1195870659" to="-1195870657" fromLane="0" toLane="0"/>
    <connection from="-1195870659" to="1195870659" fromLane="0" toLane="0"/>

    <connection from="-1210613950" to="810247335" fromLane="0" toLane="0"/>
    <connection from="-1210613950" to="-24668124" fromLane="0" toLane="0"/>
    <connection from="-1210613950" to="1210613950" fromLane="0" toLane="0"/>

    <connection from="-1217308488" to="129432104#1" fromLane="0" toLane="0"/>
    <connection from="-1217308488" to="-129432104#0" fromLane="0" toLane="0"/>
    <connection from="-1217308488" to="1217308488" fromLane="0" toLane="0"/>
