<?xml version="1.0" encoding="UTF-8"?>

<!-- generated on 2025-04-08 20:10:23 by Eclipse SUMO netconvert Version 1.19.0
<configuration xmlns:xsi="http://www.w3.org/2001/XMLSchema-instance" xsi:noNamespaceSchemaLocation="http://sumo.dlr.de/xsd/netconvertConfiguration.xsd">

    <input>
        <sumo-net-file value="mantes_la_jolie/mantes_la_jolie.net.xml"/>
    </input>

    <output>
        <plain-output-prefix value="mantes_la_jolie/mantes_la_jolie"/>
    </output>

    <processing>
        <geometry.min-radius.fix.railways value="false"/>
        <geometry.max-grade.fix value="false"/>
        <offset.disable-normalization value="true"/>
        <lefthand value="0"/>
    </processing>

    <tls_building>
        <tls.ignore-internal-junction-jam value="1"/>
    </tls_building>

    <junctions>
        <no-turnarounds value="true"/>
        <junctions.corner-detail value="5"/>
        <junctions.limit-turn-speed value="5.50"/>
        <rectangular-lane-cut value="0"/>
    </junctions>

    <pedestrian>
        <walkingareas value="0"/>
    </pedestrian>

</configuration>
-->

<connections version="1.16" xmlns:xsi="http://www.w3.org/2001/XMLSchema-instance" xsi:noNamespaceSchemaLocation="http://sumo.dlr.de/xsd/connections_file.xsd">
    <connection from="-1003619987#0" to="-684913104#0" fromLane="0" toLane="0"/>
    <connection from="-1003619987#0" to="684913104#1" fromLane="0" toLane="0"/>
    <connection from="-1003619987#0" to="1003619987#0" fromLane="0" toLane="0"/>

    <connection from="-1003619987#1" to="46969973#1" fromLane="0" toLane="0"/>
    <connection from="-1003619987#1" to="-1003619987#0" fromLane="0" toLane="0"/>
    <connection from="-1003619987#1" to="-46969973#0" fromLane="0" toLane="0"/>
    <connection from="-1003619987#1" to="1003619987#1" fromLane="0" toLane="0"/>

    <connection from="-1003619987#2" to="-1003619987#1" fromLane="0" toLane="0"/>
    <connection from="-1003619987#2" to="1003620727" fromLane="0" toLane="0"/>
    <connection from="-1003619987#2" to="1003619987#2" fromLane="0" toLane="0"/>

    <connection from="-1018289139" to="683649610#3" fromLane="0" toLane="0" visibility="9.00"/>

    <connection from="-1023342727#0" to="-1023342727#1" fromLane="0" toLane="0"/>
    <connection from="-1023342727#0" to="-1023342728" fromLane="0" toLane="0"/>
    <connection from="-1023342727#0" to="1023342727#0" fromLane="0" toLane="0"/>

    <connection from="-1023342727#1" to="-1023342727#0" fromLane="0" toLane="0"/>
    <connection from="-1023342727#1" to="142592690" fromLane="0" toLane="0"/>

    <connection from="-1023342728" to="-1023342729" fromLane="0" toLane="0"/>
    <connection from="-1023342728" to="-142592689" fromLane="0" toLane="0"/>
    <connection from="-1023342728" to="1023342728" fromLane="0" toLane="0"/>

    <connection from="-1023342729" to="-142592661#1" fromLane="0" toLane="0"/>
    <connection from="-1023342729" to="142592661#0" fromLane="0" toLane="0"/>
    <connection from="-1023342729" to="1023342729" fromLane="0" toLane="0"/>

    <connection from="-1032354532#0" to="-46969917#2" fromLane="0" toLane="0"/>
    <connection from="-1032354532#0" to="46969917#3" fromLane="0" toLane="0"/>
    <connection from="-1032354532#0" to="1032354532#0" fromLane="0" toLane="0"/>

    <connection from="-1032354532#1" to="-1032354532#0" fromLane="0" toLane="0"/>
    <connection from="-1032354532#1" to="1032354537" fromLane="0" toLane="0"/>
    <connection from="-1032354532#1" to="1032354532#1" fromLane="0" toLane="0"/>

    <connection from="-1032354532#2" to="1032354534" fromLane="0" toLane="0"/>
    <connection from="-1032354532#2" to="-1032354532#1" fromLane="0" toLane="0"/>
    <connection from="-1032354532#2" to="1032354532#2" fromLane="0" toLane="0"/>

    <connection from="-1032354532#3" to="-1032354532#2" fromLane="0" toLane="0"/>
    <connection from="-1032354532#3" to="1032354533#0" fromLane="0" toLane="0"/>
    <connection from="-1032354532#3" to="1032354532#3" fromLane="0" toLane="0"/>

    <connection from="-1032354533#0" to="1032354532#3" fromLane="0" toLane="0"/>
    <connection from="-1032354533#0" to="-1032354532#2" fromLane="0" toLane="0"/>
    <connection from="-1032354533#0" to="1032354533#0" fromLane="0" toLane="0"/>

    <connection from="-1032354533#1" to="1032354538#0" fromLane="0" toLane="0"/>
    <connection from="-1032354533#1" to="-1032354533#0" fromLane="0" toLane="0"/>
    <connection from="-1032354533#1" to="1032354533#1" fromLane="0" toLane="0"/>

    <connection from="-1032354534" to="-1032354532#1" fromLane="0" toLane="0"/>
    <connection from="-1032354534" to="1032354532#2" fromLane="0" toLane="0"/>
    <connection from="-1032354534" to="1032354534" fromLane="0" toLane="0"/>

    <connection from="-1032354535#0" to="-1032354534" fromLane="0" toLane="0" keepClear="0"/>

    <connection from="-1032354535#1" to="1032354536" fromLane="0" toLane="0"/>
    <connection from="-1032354535#1" to="-1032354535#0" fromLane="0" toLane="0"/>
    <connection from="-1032354535#1" to="1032354535#1" fromLane="0" toLane="0"/>

    <connection from="-1032354536" to="-1032354535#0" fromLane="0" toLane="0"/>
    <connection from="-1032354536" to="1032354535#1" fromLane="0" toLane="0"/>
    <connection from="-1032354536" to="1032354536" fromLane="0" toLane="0"/>

    <connection from="-1032354537" to="1032354532#1" fromLane="0" toLane="0"/>
    <connection from="-1032354537" to="-1032354532#0" fromLane="0" toLane="0"/>
    <connection from="-1032354537" to="1032354537" fromLane="0" toLane="0"/>

    <connection from="-1032354538#0" to="-1032354533#0" fromLane="0" toLane="0"/>
    <connection from="-1032354538#0" to="1032354533#1" fromLane="0" toLane="0"/>
    <connection from="-1032354538#0" to="1032354538#0" fromLane="0" toLane="0"/>

    <connection from="-1032354538#1" to="-1032355010" fromLane="0" toLane="0"/>
    <connection from="-1032354538#1" to="-1032354538#0" fromLane="0" toLane="0"/>
    <connection from="-1032354538#1" to="1032354538#1" fromLane="0" toLane="0"/>

    <connection from="-1032354539#0" to="1032354542" fromLane="0" toLane="0"/>
    <connection from="-1032354539#0" to="1275388022" fromLane="0" toLane="0"/>
    <connection from="-1032354539#0" to="-1032354532#3" fromLane="0" toLane="0"/>
    <connection from="-1032354539#0" to="1032354539#0" fromLane="0" toLane="0"/>

    <connection from="-1032354539#1" to="-1032354539#0" fromLane="0" toLane="0"/>
    <connection from="-1032354539#1" to="1032355010" fromLane="0" toLane="0"/>
    <connection from="-1032354539#1" to="1032354539#1" fromLane="0" toLane="0"/>

    <connection from="-1032354539#2" to="1032355011" fromLane="0" toLane="0"/>
    <connection from="-1032354539#2" to="-1032354539#1" fromLane="0" toLane="0"/>
    <connection from="-1032354539#2" to="1032354539#2" fromLane="0" toLane="0"/>

    <connection from="-1032354542" to="1275388022" fromLane="0" toLane="0"/>
    <connection from="-1032354542" to="-1032354532#3" fromLane="0" toLane="0"/>
    <connection from="-1032354542" to="1032354539#0" fromLane="0" toLane="0"/>
    <connection from="-1032354542" to="1032354542" fromLane="0" toLane="0"/>

    <connection from="-1032355010" to="1032354539#1" fromLane="0" toLane="0"/>
    <connection from="-1032355010" to="-1032354539#0" fromLane="0" toLane="0"/>
    <connection from="-1032355010" to="1032355010" fromLane="0" toLane="0"/>

    <connection from="-1032355011" to="-1032354539#1" fromLane="0" toLane="0"/>
    <connection from="-1032355011" to="1032354539#2" fromLane="0" toLane="0"/>
    <connection from="-1032355011" to="1032355011" fromLane="0" toLane="0"/>

    <connection from="-1037081851#0" to="1037081851#0" fromLane="0" toLane="0"/>

    <connection from="-1037081851#1" to="-1037081851#0" fromLane="0" toLane="0"/>
    <connection from="-1037081851#1" to="1232525159#0" fromLane="0" toLane="0"/>
    <connection from="-1037081851#1" to="1037081851#1" fromLane="0" toLane="0"/>

    <connection from="-1037081852" to="1037081852" fromLane="0" toLane="0"/>

    <connection from="-1038206786#0" to="1038206786#0" fromLane="0" toLane="0"/>

    <connection from="-1038206786#1" to="945413924" fromLane="0" toLane="0"/>
    <connection from="-1038206786#1" to="-1038206786#0" fromLane="0" toLane="0"/>
    <connection from="-1038206786#1" to="1038206786#1" fromLane="0" toLane="0"/>

    <connection from="-1038206793" to="-684913102#0" fromLane="0" toLane="0"/>
    <connection from="-1038206793" to="684913102#1" fromLane="0" toLane="0"/>
    <connection from="-1038206793" to="1038206793" fromLane="0" toLane="0"/>

    <connection from="-1038206794#0" to="1038206794#0" fromLane="0" toLane="0"/>

    <connection from="-1038206794#1" to="-1038206794#0" fromLane="0" toLane="0"/>
    <connection from="-1038206794#1" to="-1038206793" fromLane="0" toLane="0"/>
    <connection from="-1038206794#1" to="1038206794#1" fromLane="0" toLane="0"/>

    <connection from="-1038206801" to="684913102#3" fromLane="0" toLane="0"/>
    <connection from="-1038206801" to="-684913102#2" fromLane="0" toLane="0"/>
    <connection from="-1038206801" to="1038206801" fromLane="0" toLane="0"/>

    <connection from="-1038206803#0" to="1038206803#0" fromLane="0" toLane="0"/>

    <connection from="-1038206803#1" to="-1151172269" fromLane="0" toLane="0"/>
    <connection from="-1038206803#1" to="-1038206803#0" fromLane="0" toLane="0"/>
    <connection from="-1038206803#1" to="1038206803#1" fromLane="0" toLane="0"/>

    <connection from="-1038206803#2" to="-1151172268" fromLane="0" toLane="0"/>
    <connection from="-1038206803#2" to="-1038206803#1" fromLane="0" toLane="0"/>
    <connection from="-1038206803#2" to="1038206803#2" fromLane="0" toLane="0"/>

    <connection from="-1038206803#3" to="-1038206803#2" fromLane="0" toLane="0"/>
    <connection from="-1038206803#3" to="1151172270" fromLane="0" toLane="0"/>
    <connection from="-1038206803#3" to="1038206803#3" fromLane="0" toLane="0"/>

    <connection from="-1038206803#4" to="-1038206803#3" fromLane="0" toLane="0"/>
    <connection from="-1038206803#4" to="1038206803#4" fromLane="0" toLane="0"/>

    <connection from="-1038206804" to="1038206804" fromLane="0" toLane="0"/>

    <connection from="-1038206805#0" to="46969930#2" fromLane="0" toLane="0"/>
    <connection from="-1038206805#0" to="-46969930#1" fromLane="0" toLane="0"/>
    <connection from="-1038206805#0" to="1038206805#0" fromLane="0" toLane="0"/>

    <connection from="-1038206805#1" to="-1038206805#0" fromLane="0" toLane="0"/>
    <connection from="-1038206805#1" to="-1038206804" fromLane="0" toLane="0"/>
    <connection from="-1038206805#1" to="1038206805#1" fromLane="0" toLane="0"/>

    <connection from="-1041496289" to="1089879017#0" fromLane="0" toLane="0"/>

    <connection from="-1041496926#0" to="1041496926#0" fromLane="0" toLane="0"/>

    <connection from="-1041496926#1" to="-1041496926#0" fromLane="0" toLane="0"/>
    <connection from="-1041496926#1" to="1279703046" fromLane="0" toLane="0"/>
    <connection from="-1041496926#1" to="1041496926#1" fromLane="0" toLane="0"/>

    <connection from="-1041496926#2" to="-1041496926#1" fromLane="0" toLane="0"/>
    <connection from="-1041496926#2" to="1041496926#2" fromLane="0" toLane="0"/>

    <connection from="-1041496926#3" to="-1041496926#2" fromLane="0" toLane="0"/>
    <connection from="-1041496926#3" to="-1279703054#7" fromLane="0" toLane="0"/>
    <connection from="-1041496926#3" to="1041496926#3" fromLane="0" toLane="0"/>

    <connection from="-1041496926#4" to="1154087985#1" fromLane="0" toLane="0"/>
    <connection from="-1041496926#4" to="-1041496926#3" fromLane="0" toLane="0"/>
    <connection from="-1041496926#4" to="-1154087985#0" fromLane="0" toLane="0"/>
    <connection from="-1041496926#4" to="1041496926#4" fromLane="0" toLane="0"/>

    <connection from="-1051147529" to="560294435#1" fromLane="0" toLane="0"/>
    <connection from="-1051147529" to="-560294435#0" fromLane="0" toLane="0"/>
    <connection from="-1051147529" to="1051147529" fromLane="0" toLane="0"/>

    <connection from="-1051147531#0" to="-60359539#0" fromLane="0" toLane="0"/>
    <connection from="-1051147531#0" to="60359539#1" fromLane="0" toLane="0"/>
    <connection from="-1051147531#0" to="1051147531#0" fromLane="0" toLane="0"/>

    <connection from="-1051147531#1" to="-1051147531#0" fromLane="0" toLane="0"/>
    <connection from="-1051147531#1" to="1051147531#1" fromLane="0" toLane="0"/>

    <connection from="-1051147532" to="-49191985#1" fromLane="0" toLane="0"/>
    <connection from="-1051147532" to="49191985#2" fromLane="0" toLane="0"/>
    <connection from="-1051147532" to="1051147532" fromLane="0" toLane="0"/>

    <connection from="-1051147533" to="-1051147534#0" fromLane="0" toLane="0"/>
    <connection from="-1051147533" to="1051147534#1" fromLane="0" toLane="0"/>
    <connection from="-1051147533" to="1051147533" fromLane="0" toLane="0"/>

    <connection from="-1051147534#0" to="49191985#1" fromLane="0" toLane="0"/>
    <connection from="-1051147534#0" to="-49191985#0" fromLane="0" toLane="0"/>
    <connection from="-1051147534#0" to="1051147534#0" fromLane="0" toLane="0"/>

    <connection from="-1051147534#1" to="1051147533" fromLane="0" toLane="0"/>
    <connection from="-1051147534#1" to="-1051147534#0" fromLane="0" toLane="0"/>
    <connection from="-1051147534#1" to="1051147534#1" fromLane="0" toLane="0"/>

    <connection from="-1051342534" to="150115458#8" fromLane="0" toLane="0"/>
    <connection from="-1051342534" to="-150115458#7" fromLane="0" toLane="0"/>
    <connection from="-1051342534" to="1051342534" fromLane="0" toLane="0"/>

    <connection from="-1051342536" to="1051342536" fromLane="0" toLane="0"/>

    <connection from="-1051342537" to="-150115466#3" fromLane="0" toLane="0"/>
    <connection from="-1051342537" to="150115466#4" fromLane="0" toLane="0"/>
    <connection from="-1051342537" to="1051342537" fromLane="0" toLane="0"/>

    <connection from="-1051342538" to="-1051342539#0" fromLane="0" toLane="0"/>
    <connection from="-1051342538" to="1051342539#1" fromLane="0" toLane="0"/>
    <connection from="-1051342538" to="1051342538" fromLane="0" toLane="0"/>

    <connection from="-1051342539#0" to="150115466#3" fromLane="0" toLane="0"/>
    <connection from="-1051342539#0" to="-150115466#2" fromLane="0" toLane="0"/>
    <connection from="-1051342539#0" to="1051342539#0" fromLane="0" toLane="0"/>

    <connection from="-1051342539#1" to="1051342538" fromLane="0" toLane="0"/>
    <connection from="-1051342539#1" to="-1051342539#0" fromLane="0" toLane="0"/>
    <connection from="-1051342539#1" to="1051342539#1" fromLane="0" toLane="0"/>

    <connection from="-1051342540" to="1051342541#1" fromLane="0" toLane="0"/>
    <connection from="-1051342540" to="-1051342541#0" fromLane="0" toLane="0"/>
    <connection from="-1051342540" to="1051342540" fromLane="0" toLane="0"/>

    <connection from="-1051342541#0" to="48402133#1" fromLane="0" toLane="0"/>
    <connection from="-1051342541#0" to="-48402133#0" fromLane="0" toLane="0"/>
    <connection from="-1051342541#0" to="1051342541#0" fromLane="0" toLane="0"/>

    <connection from="-1051342541#1" to="-1051342541#0" fromLane="0" toLane="0"/>
    <connection from="-1051342541#1" to="1051342540" fromLane="0" toLane="0"/>
    <connection from="-1051342541#1" to="1051342541#1" fromLane="0" toLane="0"/>

    <connection from="-1051342542" to="-48402133#2" fromLane="0" toLane="0"/>
    <connection from="-1051342542" to="48402133#3" fromLane="0" toLane="0"/>
    <connection from="-1051342542" to="1051342542" fromLane="0" toLane="0"/>

    <connection from="-1051342543" to="1051342544#2" fromLane="0" toLane="0"/>
    <connection from="-1051342543" to="-1051342544#1" fromLane="0" toLane="0"/>
    <connection from="-1051342543" to="1051342543" fromLane="0" toLane="0"/>

    <connection from="-1051342544#0" to="48402139#4" fromLane="0" toLane="0"/>
    <connection from="-1051342544#0" to="-48402139#3" fromLane="0" toLane="0"/>
    <connection from="-1051342544#0" to="1051342544#0" fromLane="0" toLane="0"/>

    <connection from="-1051342544#1" to="-1051342544#0" fromLane="0" toLane="0"/>
    <connection from="-1051342544#1" to="1051342544#1" fromLane="0" toLane="0"/>

    <connection from="-1051342544#2" to="-1051342544#1" fromLane="0" toLane="0"/>
    <connection from="-1051342544#2" to="1051342543" fromLane="0" toLane="0"/>
    <connection from="-1051342544#2" to="1051342544#2" fromLane="0" toLane="0"/>

    <connection from="-1051342552" to="1051342555#1" fromLane="0" toLane="0"/>
    <connection from="-1051342552" to="-1051342555#0" fromLane="0" toLane="0"/>
    <connection from="-1051342552" to="1051342552" fromLane="0" toLane="0"/>

    <connection from="-1051342554#0" to="48439945#4" fromLane="0" toLane="0"/>
    <connection from="-1051342554#0" to="-48439945#3" fromLane="0" toLane="0"/>
    <connection from="-1051342554#0" to="1051342554#0" fromLane="0" toLane="0"/>

    <connection from="-1051342554#1" to="-1051342554#0" fromLane="0" toLane="0"/>
    <connection from="-1051342554#1" to="1051342554#1" fromLane="0" toLane="0"/>

    <connection from="-1051342555#0" to="-1051342556#0" fromLane="0" toLane="0"/>
    <connection from="-1051342555#0" to="1051342556#1" fromLane="0" toLane="0"/>
    <connection from="-1051342555#0" to="1051342555#0" fromLane="0" toLane="0"/>

    <connection from="-1051342555#1" to="-1051342555#0" fromLane="0" toLane="0"/>
    <connection from="-1051342555#1" to="1051342552" fromLane="0" toLane="0"/>
    <connection from="-1051342555#1" to="1051342555#1" fromLane="0" toLane="0"/>

    <connection from="-1051342556#0" to="48439945#2" fromLane="0" toLane="0"/>
    <connection from="-1051342556#0" to="-48439945#1" fromLane="0" toLane="0"/>
    <connection from="-1051342556#0" to="1051342556#0" fromLane="0" toLane="0"/>

    <connection from="-1051342556#1" to="1051342555#0" fromLane="0" toLane="0"/>
    <connection from="-1051342556#1" to="-1051342556#0" fromLane="0" toLane="0"/>
    <connection from="-1051342556#1" to="1051342556#1" fromLane="0" toLane="0"/>

    <connection from="-1051342558" to="48439968#2" fromLane="0" toLane="0"/>
    <connection from="-1051342558" to="-48439968#1" fromLane="0" toLane="0"/>
    <connection from="-1051342558" to="1051342558" fromLane="0" toLane="0"/>

    <connection from="-1051342560" to="-1051342561#0" fromLane="0" toLane="0"/>
    <connection from="-1051342560" to="1051342561#1" fromLane="0" toLane="0"/>
    <connection from="-1051342560" to="1051342560" fromLane="0" toLane="0"/>

    <connection from="-1051342561#0" to="46158419#5" fromLane="0" toLane="0"/>
    <connection from="-1051342561#0" to="1051342561#0" fromLane="0" toLane="0"/>

    <connection from="-1051342561#1" to="1051342560" fromLane="0" toLane="0"/>
    <connection from="-1051342561#1" to="-1051342561#0" fromLane="0" toLane="0"/>
    <connection from="-1051342561#1" to="1051342561#1" fromLane="0" toLane="0"/>

    <connection from="-1051342563" to="46158419#7" fromLane="0" toLane="0"/>
    <connection from="-1051342563" to="1051342563" fromLane="0" toLane="0"/>

    <connection from="-1051342565#0" to="1051342565#0" fromLane="0" toLane="0"/>

    <connection from="-1051342565#1" to="1051342567#1" fromLane="0" toLane="0"/>
    <connection from="-1051342565#1" to="-1051342565#0" fromLane="0" toLane="0"/>
    <connection from="-1051342565#1" to="-1051342567#0" fromLane="0" toLane="0"/>
    <connection from="-1051342565#1" to="1051342565#1" fromLane="0" toLane="0"/>

    <connection from="-1051342566" to="1051342566" fromLane="0" toLane="0"/>

    <connection from="-1051342567#0" to="46158419#8" fromLane="0" toLane="0"/>
    <connection from="-1051342567#0" to="1051342567#0" fromLane="0" toLane="0"/>

    <connection from="-1051342567#1" to="-1051342565#0" fromLane="0" toLane="0"/>
    <connection from="-1051342567#1" to="-1051342567#0" fromLane="0" toLane="0"/>
    <connection from="-1051342567#1" to="1051342565#1" fromLane="0" toLane="0"/>
    <connection from="-1051342567#1" to="1051342567#1" fromLane="0" toLane="0"/>

    <connection from="-1051342567#2" to="-1051342566" fromLane="0" toLane="0"/>
    <connection from="-1051342567#2" to="-1051342567#1" fromLane="0" toLane="0"/>
    <connection from="-1051342567#2" to="1051342567#2" fromLane="0" toLane="0"/>

    <connection from="-1056315401" to="-200437323#1" fromLane="0" toLane="0"/>
    <connection from="-1056315401" to="200437323#2" fromLane="0" toLane="0"/>
    <connection from="-1056315401" to="1056315401" fromLane="0" toLane="0"/>

    <connection from="-1056315402#0" to="1056315402#0" fromLane="0" toLane="0"/>

    <connection from="-1056315402#1" to="-1056315402#0" fromLane="0" toLane="0"/>
    <connection from="-1056315402#1" to="-1056315403" fromLane="0" toLane="0"/>
    <connection from="-1056315402#1" to="1056315402#1" fromLane="0" toLane="0"/>

    <connection from="-1056315403" to="1056315405#1" fromLane="0" toLane="0"/>
    <connection from="-1056315403" to="-1056315405#0" fromLane="0" toLane="0"/>
    <connection from="-1056315403" to="1056315403" fromLane="0" toLane="0"/>

    <connection from="-1056315404" to="1056315404" fromLane="0" toLane="0"/>

    <connection from="-1056315405#0" to="-1056315401" fromLane="0" toLane="0" keepClear="0"/>
    <connection from="-1056315405#0" to="1056315405#0" fromLane="0" toLane="0"/>

    <connection from="-1056315405#1" to="-1056315405#0" fromLane="0" toLane="0"/>
    <connection from="-1056315405#1" to="1056315403" fromLane="0" toLane="0"/>
    <connection from="-1056315405#1" to="1056315405#1" fromLane="0" toLane="0"/>

    <connection from="-1056315405#2" to="-1056315404" fromLane="0" toLane="0"/>
    <connection from="-1056315405#2" to="-1056315405#1" fromLane="0" toLane="0"/>
    <connection from="-1056315405#2" to="1056315405#2" fromLane="0" toLane="0"/>

    <connection from="-1059162252#0" to="-1059162254#2" fromLane="0" toLane="0"/>
    <connection from="-1059162252#0" to="1059162252#0" fromLane="0" toLane="0"/>

    <connection from="-1059162252#1" to="1187203610" fromLane="0" toLane="0"/>
    <connection from="-1059162252#1" to="-1059162252#0" fromLane="0" toLane="0"/>

    <connection from="-1059162253#0" to="1059162254#1" fromLane="0" toLane="0"/>
    <connection from="-1059162253#0" to="1257152182" fromLane="0" toLane="0"/>
    <connection from="-1059162253#0" to="-1059162254#0" fromLane="0" toLane="0"/>
    <connection from="-1059162253#0" to="1059162253#0" fromLane="0" toLane="0"/>

    <connection from="-1059162253#1" to="1300970283#0" fromLane="0" toLane="0"/>
    <connection from="-1059162253#1" to="-1059162253#0" fromLane="0" toLane="0"/>
    <connection from="-1059162253#1" to="1059162253#1" fromLane="0" toLane="0"/>

    <connection from="-1059162254#0" to="-1088014265#5" fromLane="0" toLane="0"/>
    <connection from="-1059162254#0" to="1088014265#6" fromLane="0" toLane="0"/>
    <connection from="-1059162254#0" to="1059162254#0" fromLane="0" toLane="0"/>

    <connection from="-1059162254#1" to="1257152182" fromLane="0" toLane="0"/>
    <connection from="-1059162254#1" to="-1059162254#0" fromLane="0" toLane="0"/>
    <connection from="-1059162254#1" to="1059162253#0" fromLane="0" toLane="0"/>
    <connection from="-1059162254#1" to="1059162254#1" fromLane="0" toLane="0"/>

    <connection from="-1059162254#2" to="-1059162254#1" fromLane="0" toLane="0"/>

    <connection from="-1069925329#0" to="587562643#11" fromLane="0" toLane="0"/>
    <connection from="-1069925329#0" to="-587562643#10" fromLane="0" toLane="0"/>
    <connection from="-1069925329#0" to="1069925329#0" fromLane="0" toLane="0"/>

    <connection from="-1069925329#1" to="-1069925330#2" fromLane="0" toLane="0"/>
    <connection from="-1069925329#1" to="-1069925329#0" fromLane="0" toLane="0"/>
    <connection from="-1069925329#1" to="1069925329#1" fromLane="0" toLane="0"/>

    <connection from="-1069925329#2" to="1069925330#0" fromLane="0" toLane="0"/>
    <connection from="-1069925329#2" to="-1069925329#1" fromLane="0" toLane="0"/>
    <connection from="-1069925329#2" to="1069925329#2" fromLane="0" toLane="0"/>

    <connection from="-1069925330#0" to="-1069925329#1" fromLane="0" toLane="0"/>
    <connection from="-1069925330#0" to="1069925329#2" fromLane="0" toLane="0"/>
    <connection from="-1069925330#0" to="1069925330#0" fromLane="0" toLane="0"/>

    <connection from="-1069925330#1" to="-1069925330#0" fromLane="0" toLane="0"/>
    <connection from="-1069925330#1" to="1069925331#0" fromLane="0" toLane="0"/>
    <connection from="-1069925330#1" to="1069925330#1" fromLane="0" toLane="0"/>

    <connection from="-1069925330#2" to="-1069925330#1" fromLane="0" toLane="0"/>
    <connection from="-1069925330#2" to="-1069925331#2" fromLane="0" toLane="0"/>
    <connection from="-1069925330#2" to="1069925330#2" fromLane="0" toLane="0"/>

    <connection from="-1069925331#0" to="1069925330#1" fromLane="0" toLane="0"/>
    <connection from="-1069925331#0" to="-1069925330#0" fromLane="0" toLane="0"/>
    <connection from="-1069925331#0" to="1069925331#0" fromLane="0" toLane="0"/>

    <connection from="-1069925331#1" to="-1069925331#0" fromLane="0" toLane="0"/>
    <connection from="-1069925331#1" to="1069925331#1" fromLane="0" toLane="0"/>

    <connection from="-1069925331#2" to="-1069925331#1" fromLane="0" toLane="0"/>
    <connection from="-1069925331#2" to="1069925331#2" fromLane="0" toLane="0"/>

    <connection from="-1069932140#0" to="1069932138#1" fromLane="0" toLane="0"/>
    <connection from="-1069932140#0" to="1069932140#0" fromLane="0" toLane="0"/>

    <connection from="-1069932140#1" to="-1069932140#0" fromLane="0" toLane="0"/>
    <connection from="-1069932140#1" to="1069932140#1" fromLane="0" toLane="0"/>

    <connection from="-1069932140#2" to="-1069932140#1" fromLane="0" toLane="0"/>
    <connection from="-1069932140#2" to="1070590569#0" fromLane="0" toLane="0"/>
    <connection from="-1069932140#2" to="1069932140#2" fromLane="0" toLane="0"/>

    <connection from="-1069932140#3" to="-1069932140#2" fromLane="0" toLane="0"/>
    <connection from="-1069932140#3" to="1280347090" fromLane="0" toLane="0"/>
    <connection from="-1069932140#3" to="1069932140#3" fromLane="0" toLane="0"/>

    <connection from="-1069932140#4" to="1279860895" fromLane="0" toLane="0"/>
    <connection from="-1069932140#4" to="-1069932140#3" fromLane="0" toLane="0"/>
    <connection from="-1069932140#4" to="1069932140#4" fromLane="0" toLane="0"/>

    <connection from="-1069932143" to="-1070590569#0" fromLane="0" toLane="0"/>
    <connection from="-1069932143" to="1070590569#1" fromLane="0" toLane="0"/>
    <connection from="-1069932143" to="1069932143" fromLane="0" toLane="0"/>

    <connection from="-1069932144" to="-1070590569#1" fromLane="0" toLane="0"/>
    <connection from="-1069932144" to="1070590569#2" fromLane="0" toLane="0"/>
    <connection from="-1069932144" to="1069932144" fromLane="0" toLane="0"/>

    <connection from="-1070590563" to="-1070590568#3" fromLane="0" toLane="0"/>
    <connection from="-1070590563" to="1070590568#4" fromLane="0" toLane="0"/>

    <connection from="-1070590568#0" to="1070590568#0" fromLane="0" toLane="0"/>

    <connection from="-1070590568#1" to="-871704892#2" fromLane="0" toLane="0"/>
    <connection from="-1070590568#1" to="-1070590568#0" fromLane="0" toLane="0"/>
    <connection from="-1070590568#1" to="1070590568#1" fromLane="0" toLane="0"/>

    <connection from="-1070590568#2" to="-1070590568#1" fromLane="0" toLane="0"/>
    <connection from="-1070590568#2" to="1070590568#2" fromLane="0" toLane="0"/>

    <connection from="-1070590568#3" to="-1070590568#2" fromLane="0" toLane="0"/>
    <connection from="-1070590568#3" to="1070590568#3" fromLane="0" toLane="0"/>

    <connection from="-1070590569#0" to="1069932140#2" fromLane="0" toLane="0"/>
    <connection from="-1070590569#0" to="-1069932140#1" fromLane="0" toLane="0"/>
    <connection from="-1070590569#0" to="1070590569#0" fromLane="0" toLane="0"/>

    <connection from="-1070590569#1" to="1069932143" fromLane="0" toLane="0"/>
    <connection from="-1070590569#1" to="-1070590569#0" fromLane="0" toLane="0"/>
    <connection from="-1070590569#1" to="1070590569#1" fromLane="0" toLane="0"/>

    <connection from="-1070590569#2" to="1069932144" fromLane="0" toLane="0"/>
    <connection from="-1070590569#2" to="-1070590569#1" fromLane="0" toLane="0"/>
    <connection from="-1070590569#2" to="1070590569#2" fromLane="0" toLane="0"/>

    <connection from="-1070590569#3" to="-1070590569#2" fromLane="0" toLane="0"/>
    <connection from="-1070590569#3" to="1070590569#3" fromLane="0" toLane="0"/>

    <connection from="-1070590569#4" to="-1070590569#3" fromLane="0" toLane="0"/>
    <connection from="-1070590569#4" to="1070590569#4" fromLane="0" toLane="0"/>

    <connection from="-107184446" to="560321615#1" fromLane="0" toLane="0"/>
    <connection from="-107184446" to="-560321615#0" fromLane="0" toLane="0"/>
    <connection from="-107184446" to="107184446" fromLane="0" toLane="0"/>

    <connection from="-1079538607#0" to="-1154087984" fromLane="0" toLane="0"/>
    <connection from="-1079538607#0" to="1079538606" fromLane="0" toLane="0"/>

    <connection from="-1079538607#1" to="1090233453#1" fromLane="0" toLane="0"/>
    <connection from="-1079538607#1" to="-1079538607#0" fromLane="0" toLane="0"/>
    <connection from="-1079538607#1" to="-1090233453#0" fromLane="0" toLane="0"/>
    <connection from="-1079538607#1" to="1079538607#1" fromLane="0" toLane="0"/>

    <connection from="-1079538611" to="560374486#1" fromLane="0" toLane="0"/>
    <connection from="-1079538611" to="-1154087981#0" fromLane="0" toLane="0"/>
    <connection from="-1079538611" to="-560374486#0" fromLane="0" toLane="0"/>
    <connection from="-1079538611" to="1154087981#1" fromLane="0" toLane="0"/>
