<?xml version="1.0" encoding="UTF-8"?>

<!-- generated on 2025-04-08 20:10:23 by Eclipse SUMO netconvert Version 1.19.0
<configuration xmlns:xsi="http://www.w3.org/2001/XMLSchema-instance" xsi:noNamespaceSchemaLocation="http://sumo.dlr.de/xsd/netconvertConfiguration.xsd">

    <input>
        <sumo-net-file value="mantes_la_jolie/mantes_la_jolie.net.xml"/>
    </input>

    <output>
        <plain-output-prefix value="mantes_la_jolie/mantes_la_jolie"/>
    </output>

    <processing>
        <geometry.min-radius.fix.railways value="false"/>
        <geometry.max-grade.fix value="false"/>
        <offset.disable-normalization value="true"/>
        <lefthand value="0"/>
    </processing>

    <tls_building>
        <tls.ignore-internal-junction-jam value="1"/>
    </tls_building>

    <junctions>
        <no-turnarounds value="true"/>
        <junctions.corner-detail value="5"/>
        <junctions.limit-turn-speed value="5.50"/>
        <rectangular-lane-cut value="0"/>
    </junctions>

    <pedestrian>
        <walkingareas value="0"/>
    </pedestrian>

</configuration>
-->

<nodes version="1.16" xmlns:xsi="http://www.w3.org/2001/XMLSchema-instance" xsi:noNamespaceSchemaLocation="http://sumo.dlr.de/xsd/nodes_file.xsd">
    <location netOffset="-397053.72,-5423062.57" convBoundary="0.00,0.00,15686.92,8413.09" origBoundary="1.592153,48.953423,1.807858,49.029195" projParameter="+proj=utm +zone=31 +ellps=WGS84 +datum=WGS84 +units=m +no_defs"/>

    <node id="10003076882" x="8474.88" y="6267.79" type="priority"/>
    <node id="10003076907" x="8707.90" y="6113.71" type="priority"/>
    <node id="10003076908" x="8722.51" y="6101.43" type="priority"/>
    <node id="10003076919" x="8979.50" y="5867.45" type="priority"/>
    <node id="10003076933" x="9275.06" y="5570.35" type="priority"/>
    <node id="10003076934" x="9255.25" y="5605.77" type="dead_end"/>
    <node id="10003076949" x="9509.82" y="5091.43" type="priority"/>
    <node id="10003076952" x="9489.31" y="5130.56" type="priority"/>
    <node id="10003076957" x="9676.89" y="4774.57" type="priority"/>
    <node id="10003076958" x="9653.85" y="4816.63" type="priority"/>
    <node id="10004607758" x="8671.97" y="4813.72" type="priority"/>
    <node id="10004607762" x="8706.70" y="4841.12" type="priority"/>
    <node id="10004879406" x="8625.19" y="4828.17" type="dead_end"/>
    <node id="10004980330" x="8380.77" y="5163.22" type="priority"/>
    <node id="10004980346" x="8323.71" y="5003.36" type="right_before_left"/>
    <node id="10004980357" x="8272.26" y="4951.39" type="priority"/>
    <node id="10004980358" x="8274.56" y="5044.06" type="right_before_left"/>
    <node id="10004980359" x="8288.90" y="4982.54" type="right_before_left"/>
    <node id="10004980363" x="8259.56" y="5035.90" type="right_before_left"/>
    <node id="10004980378" x="8258.26" y="5030.39" type="right_before_left"/>
    <node id="10022468066" x="7905.78" y="4130.19" type="dead_end"/>
    <node id="10022468069" x="7522.84" y="4037.82" type="priority"/>
    <node id="10022468070" x="7529.51" y="4039.74" type="priority"/>
    <node id="10022468072" x="7549.31" y="4052.23" type="priority"/>
    <node id="10022468073" x="7549.75" y="4054.65" type="priority"/>
    <node id="10022468074" x="7550.80" y="4060.73" type="priority"/>
    <node id="10022468075" x="7551.38" y="4068.01" type="priority"/>
    <node id="10022468084" x="7824.98" y="3988.76" type="priority"/>
    <node id="10022468085" x="7844.18" y="4003.89" type="right_before_left"/>
    <node id="10022468086" x="7886.66" y="3943.01" type="right_before_left"/>
    <node id="10022468087" x="7892.27" y="3903.36" type="right_before_left"/>
    <node id="10022468088" x="7901.74" y="3890.67" type="right_before_left"/>
    <node id="10022468091" x="7946.03" y="3923.63" type="right_before_left"/>
    <node id="10022468092" x="7936.12" y="3938.23" type="right_before_left"/>
    <node id="10022468093" x="7927.52" y="3950.88" type="right_before_left"/>
    <node id="10022468095" x="7917.37" y="3965.83" type="right_before_left"/>
    <node id="10022468096" x="7836.40" y="3928.49" type="right_before_left"/>
    <node id="10022468099" x="7792.75" y="3966.29" type="right_before_left"/>
    <node id="10022468107" x="7906.31" y="4009.48" type="right_before_left"/>
    <node id="10022468108" x="7927.74" y="4017.63" type="priority"/>
    <node id="10022468111" x="8023.69" y="3930.66" type="right_before_left"/>
    <node id="10022482119" x="7884.56" y="4063.38" type="priority"/>
    <node id="10022482132" x="7869.36" y="3864.01" type="dead_end"/>
    <node id="10022482134" x="7736.18" y="3962.67" type="priority"/>
    <node id="10047833355" x="8642.54" y="4749.67" type="priority"/>
    <node id="10047833364" x="8683.32" y="4799.26" type="priority"/>
    <node id="10054039005" x="6410.22" y="1575.87" type="priority"/>
    <node id="10056564508" x="7471.57" y="2972.49" type="priority"/>
    <node id="10056564509" x="7476.94" y="2967.19" type="priority"/>
    <node id="10057958087" x="9150.57" y="4522.78" type="priority"/>
    <node id="10057958088" x="9134.38" y="4549.21" type="priority"/>
    <node id="10061360841" x="9295.44" y="4173.43" type="priority"/>
    <node id="10138368241" x="6008.43" y="3303.40" type="priority"/>
    <node id="10138368261" x="6518.19" y="3113.99" type="priority"/>
    <node id="10138368343" x="6506.42" y="3107.76" type="priority"/>
    <node id="10138368346" x="6161.52" y="3249.28" type="priority"/>
    <node id="10138368349" x="6152.38" y="3241.50" type="traffic_light" tl="10138368349"/>
    <node id="10138368350" x="6166.92" y="3266.22" type="priority"/>
    <node id="10138368351" x="6172.16" y="3245.64" type="priority"/>
    <node id="10138368363" x="6132.82" y="3258.33" type="priority"/>
    <node id="10138368370" x="6141.16" y="3243.15" type="traffic_light" tl="10138368370"/>
    <node id="10224335200" x="5412.25" y="4057.78" type="priority"/>
    <node id="10224335208" x="5361.26" y="4122.50" type="priority"/>
    <node id="10224335214" x="5514.71" y="4245.44" type="right_before_left"/>
    <node id="10224340008" x="5395.28" y="4150.88" type="priority"/>
    <node id="10224340009" x="5389.43" y="4133.93" type="right_before_left"/>
    <node id="10224340537" x="5466.06" y="4107.20" type="right_before_left"/>
    <node id="10224340538" x="5444.96" y="4050.61" type="priority"/>
    <node id="10224340540" x="5461.06" y="4108.95" type="priority"/>
    <node id="10224340548" x="5627.77" y="4208.39" type="priority"/>
    <node id="10224340549" x="5620.35" y="4210.12" type="right_before_left"/>
    <node id="10224340551" x="5440.73" y="4135.42" type="priority"/>
    <node id="10224340552" x="5434.78" y="4118.12" type="right_before_left"/>
    <node id="10224340554" x="5447.72" y="4059.76" type="right_before_left"/>
    <node id="10271092439" x="5562.74" y="3972.84" type="priority"/>
    <node id="10271092442" x="5605.44" y="3948.84" type="right_before_left"/>
    <node id="10271092453" x="5806.48" y="3892.38" type="priority"/>
    <node id="10271092454" x="5849.69" y="3904.72" type="priority"/>
    <node id="10271092455" x="5854.57" y="3923.20" type="priority"/>
    <node id="10271092467" x="5800.85" y="3893.94" type="dead_end"/>
    <node id="10271092472" x="5744.22" y="3933.44" type="dead_end"/>
    <node id="10275471669" x="7007.53" y="3111.78" type="priority"/>
    <node id="1029874931" x="10902.05" y="3267.44" type="priority"/>
    <node id="1029874991" x="11249.86" y="3009.63" type="priority"/>
    <node id="1029875049" x="11142.39" y="2359.96" type="priority"/>
    <node id="1029875054" x="11312.59" y="2476.92" type="dead_end" fringe="inner">
        <param key="buffer_stop" value="true"/>
    </node>
    <node id="1029875073" x="10432.91" y="3426.59" type="priority"/>
    <node id="1029875088" x="11538.12" y="2678.02" type="priority"/>
    <node id="1029875128" x="10937.52" y="2589.84" type="priority"/>
    <node id="1029875310" x="11213.38" y="2783.67" type="rail_crossing"/>
    <node id="1029875331" x="10891.47" y="3318.00" type="priority"/>
    <node id="1029875370" x="11100.54" y="3119.93" type="priority"/>
    <node id="1029875386" x="11557.35" y="2436.95" type="priority"/>
    <node id="1029875438" x="11619.77" y="2667.46" type="priority"/>
    <node id="1029875582" x="11610.30" y="2648.57" type="priority"/>
    <node id="1029875715" x="11639.46" y="2527.44" type="priority"/>
    <node id="1029875765" x="11574.59" y="2770.24" type="priority"/>
    <node id="1029875777" x="10884.51" y="3280.10" type="priority"/>
    <node id="1029875951" x="11090.19" y="2328.83" type="priority"/>
    <node id="1029875985" x="11289.72" y="2984.87" type="priority"/>
    <node id="1029876004" x="11602.24" y="2665.71" type="priority"/>
    <node id="1029876024" x="11295.76" y="2838.92" type="priority"/>
    <node id="1029876046" x="11148.83" y="3078.74" type="priority"/>
    <node id="1029876057" x="11234.80" y="2230.68" type="priority"/>
    <node id="1029876070" x="11283.66" y="2708.28" type="priority"/>
    <node id="1029876138" x="11659.34" y="2670.69" type="rail_crossing"/>
    <node id="1029876159" x="11661.55" y="2663.19" type="rail_crossing"/>
    <node id="1029876170" x="10382.76" y="3411.19" type="dead_end" fringe="inner">
        <param key="buffer_stop" value="true"/>
    </node>
    <node id="1029876255" x="11321.57" y="2821.53" type="rail_crossing"/>
    <node id="1029876317" x="10827.59" y="3321.59" type="dead_end" fringe="inner">
        <param key="buffer_stop" value="true"/>
    </node>
    <node id="1029876358" x="11628.86" y="2739.35" type="dead_end" fringe="inner">
        <param key="buffer_stop" value="true"/>
    </node>
    <node id="1029876408" x="10884.70" y="2547.94" type="priority"/>
    <node id="1029876415" x="11276.66" y="2713.38" type="priority"/>
    <node id="1029876420" x="10312.33" y="3391.78" type="priority"/>
    <node id="1029876487" x="11276.60" y="2190.54" type="priority"/>
    <node id="1029876511" x="11512.82" y="2483.02" type="dead_end" fringe="inner">
        <param key="buffer_stop" value="true"/>
    </node>
    <node id="1029876569" x="11267.53" y="2990.30" type="priority"/>
    <node id="1029876605" x="11474.51" y="2560.78" type="priority"/>
    <node id="1029876632" x="11654.71" y="2682.94" type="rail_crossing"/>
    <node id="1029876668" x="11567.26" y="2473.67" type="rail_crossing"/>
    <node id="10393147592" x="9007.67" y="3871.75" type="dead_end"/>
    <node id="10393147593" x="9009.85" y="3866.33" type="priority"/>
    <node id="10393147594" x="8917.62" y="4085.79" type="dead_end"/>
    <node id="10393147595" x="8874.77" y="4100.21" type="dead_end"/>
    <node id="10393147596" x="8901.78" y="4091.12" type="dead_end"/>
    <node id="10393147597" x="8932.54" y="4080.75" type="dead_end"/>
    <node id="10543518828" x="6962.78" y="5615.07" type="priority"/>
    <node id="10564136939" x="11961.36" y="3937.66" type="priority"/>
    <node id="10564136963" x="11831.07" y="3950.72" type="priority"/>
    <node id="10604726981" x="7859.59" y="3277.10" type="priority"/>
    <node id="10604726983" x="7827.18" y="3259.54" type="priority"/>
    <node id="10604726987" x="7724.06" y="3329.12" type="priority"/>
    <node id="10604726994" x="7773.56" y="3314.51" type="dead_end"/>
    <node id="10604770808" x="7662.53" y="3253.81" type="priority"/>
    <node id="10604770810" x="7642.32" y="3253.30" type="right_before_left"/>
    <node id="10604770815" x="7637.50" y="3214.13" type="priority"/>
    <node id="10604770820" x="7633.81" y="3278.04" type="priority"/>
    <node id="10604770823" x="7655.80" y="3232.42" type="priority"/>
    <node id="10606387957" x="7958.56" y="3516.95" type="right_before_left"/>
    <node id="10606387958" x="7954.62" y="3509.54" type="dead_end"/>
    <node id="10606387968" x="7682.37" y="3274.32" type="priority"/>
    <node id="10606387969" x="7678.76" y="3279.26" type="priority"/>
    <node id="10606387971" x="7667.57" y="3285.87" type="priority"/>
    <node id="10606387974" x="7650.40" y="3288.70" type="right_before_left"/>
    <node id="10606387976" x="7617.03" y="3307.78" type="priority"/>
    <node id="10606387978" x="8893.33" y="4754.99" type="priority"/>
    <node id="10606387979" x="8871.28" y="4784.80" type="priority"/>
    <node id="10606387980" x="8908.77" y="4766.44" type="priority"/>
    <node id="10606387981" x="8886.30" y="4796.06" type="priority"/>
    <node id="10606387983" x="8806.55" y="4688.87" type="priority"/>
    <node id="10606387987" x="8772.95" y="4708.72" type="priority"/>
    <node id="10606387988" x="8803.66" y="4691.74" type="priority"/>
    <node id="10606387989" x="8837.90" y="4647.14" type="priority"/>
    <node id="10606387990" x="8843.04" y="4653.01" type="right_before_left"/>
    <node id="10606387991" x="8842.51" y="4655.97" type="priority"/>
    <node id="10606387992" x="8846.60" y="4654.50" type="priority"/>
    <node id="10606387993" x="8810.52" y="4685.24" type="priority"/>
    <node id="10606388001" x="8653.52" y="4840.46" type="priority"/>
    <node id="10606433809" x="8687.49" y="4826.82" type="right_before_left"/>
    <node id="10606433817" x="8879.85" y="4804.77" type="priority"/>
    <node id="10606433818" x="8864.60" y="4793.51" type="priority"/>
    <node id="10606433825" x="7426.85" y="5882.45" type="dead_end"/>
    <node id="10606433835" x="5768.55" y="3684.89" type="priority"/>
    <node id="10606433843" x="5908.25" y="3692.34" type="priority"/>
    <node id="10606433852" x="5930.19" y="3687.70" type="priority"/>
    <node id="10606433853" x="5570.24" y="3822.72" type="priority"/>
    <node id="10606433858" x="5630.64" y="3805.52" type="priority"/>
    <node id="10606433859" x="5576.25" y="3820.99" type="dead_end"/>
    <node id="10606433862" x="5576.29" y="3919.10" type="dead_end"/>
    <node id="10612292932" x="10520.47" y="5930.39" type="priority"/>
    <node id="10612292939" x="10642.26" y="5850.80" type="priority"/>
    <node id="10612292944" x="10747.32" y="5797.67" type="priority"/>
    <node id="10612292946" x="10620.01" y="5869.99" type="priority"/>
    <node id="10612292985" x="10764.42" y="5069.13" type="priority"/>
    <node id="10612292986" x="10777.72" y="5096.35" type="priority"/>
    <node id="10612292991" x="11219.41" y="4934.83" type="priority"/>
    <node id="10612292992" x="11211.14" y="4927.89" type="priority"/>
    <node id="10612987750" x="10538.60" y="4971.68" type="priority"/>
    <node id="10612987751" x="10612.96" y="4959.80" type="priority"/>
    <node id="10612987753" x="10628.83" y="4975.12" type="priority"/>
    <node id="10612987757" x="10088.71" y="4993.08" type="priority"/>
    <node id="10612987760" x="10112.48" y="5057.35" type="priority"/>
    <node id="10692922054" x="7949.37" y="4256.32" type="priority"/>
    <node id="10708802887" x="11079.16" y="3510.94" type="priority"/>
    <node id="10708802888" x="11079.60" y="3488.23" type="right_before_left"/>
    <node id="10708802889" x="11067.38" y="3499.15" type="priority"/>
    <node id="10708802890" x="11134.28" y="3461.40" type="priority"/>
    <node id="10708802891" x="11029.13" y="3500.62" type="priority"/>
    <node id="10709086742" x="10199.51" y="4322.81" type="dead_end"/>
    <node id="10709086743" x="10209.27" y="4332.91" type="dead_end"/>
    <node id="10709086744" x="10188.27" y="4340.08" type="dead_end"/>
    <node id="10709086748" x="10014.43" y="4330.06" type="priority"/>
    <node id="10709086751" x="9955.38" y="4251.13" type="priority"/>
    <node id="10709086784" x="9942.94" y="4277.82" type="priority"/>
    <node id="10709086787" x="9941.86" y="4369.51" type="priority"/>
    <node id="10709086789" x="9883.76" y="4229.38" type="priority"/>
    <node id="10709092305" x="10210.36" y="4227.95" type="priority"/>
    <node id="10709092321" x="10489.50" y="3824.82" type="priority"/>
    <node id="10709092325" x="10490.88" y="3806.40" type="right_before_left"/>
    <node id="10709092344" x="10887.42" y="3522.87" type="priority"/>
    <node id="10709092345" x="10984.92" y="3638.06" type="priority"/>
    <node id="10709092494" x="11080.83" y="3724.58" type="priority"/>
    <node id="10709092496" x="11008.78" y="3657.65" type="priority"/>
    <node id="10709092504" x="11637.50" y="3645.34" type="priority"/>
    <node id="10709092506" x="11628.99" y="3703.15" type="priority"/>
    <node id="10709092507" x="11597.29" y="3618.44" type="priority"/>
    <node id="10709092509" x="11550.31" y="3651.27" type="priority"/>
    <node id="10709092510" x="11656.42" y="3781.93" type="priority"/>
    <node id="10709092514" x="12025.83" y="4315.28" type="priority"/>
    <node id="10709092516" x="12064.23" y="4437.64" type="priority"/>
    <node id="10709092518" x="11997.72" y="4345.11" type="priority"/>
    <node id="10709092522" x="12005.04" y="4307.99" type="right_before_left"/>
    <node id="10709092523" x="11873.90" y="4196.47" type="priority"/>
    <node id="10709092526" x="11938.06" y="4165.51" type="right_before_left"/>
    <node id="10709092527" x="11927.32" y="4133.54" type="priority"/>
    <node id="10709092528" x="11928.98" y="4140.36" type="priority"/>
    <node id="10709092539" x="12014.68" y="4340.83" type="priority"/>
    <node id="10709092543" x="12143.36" y="4307.65" type="priority"/>
    <node id="10709092564" x="12417.49" y="4085.93" type="priority"/>
    <node id="10709092568" x="12538.43" y="4434.79" type="priority"/>
    <node id="10709092572" x="12453.69" y="4306.83" type="right_before_left"/>
    <node id="10709092579" x="12309.18" y="4294.39" type="priority"/>
    <node id="10709092584" x="11537.40" y="4193.83" type="priority"/>
    <node id="10709092586" x="11795.78" y="4006.70" type="priority"/>
    <node id="10709092587" x="11789.34" y="3962.13" type="priority"/>
    <node id="10709092588" x="11792.05" y="3978.37" type="right_before_left"/>
    <node id="10709092589" x="11793.97" y="3993.86" type="priority"/>
    <node id="10709092600" x="11752.26" y="4191.34" type="right_before_left"/>
    <node id="10709092601" x="11770.59" y="4251.54" type="priority"/>
    <node id="10709092602" x="11815.53" y="4257.26" type="priority"/>
    <node id="10709092611" x="11570.71" y="4221.11" type="priority"/>
    <node id="10709092613" x="11623.86" y="4231.52" type="right_before_left"/>
    <node id="10709092619" x="11739.31" y="4199.51" type="right_before_left"/>
    <node id="10709092620" x="11736.17" y="4185.12" type="right_before_left"/>
    <node id="10709092621" x="11733.18" y="4169.62" type="priority"/>
    <node id="10709092626" x="11486.76" y="4284.04" type="priority"/>
    <node id="10709092631" x="11458.16" y="4262.63" type="right_before_left"/>
    <node id="10709092658" x="11527.30" y="3933.21" type="priority"/>
    <node id="10709092667" x="11719.59" y="3934.84" type="priority"/>
    <node id="10709092671" x="12223.30" y="3504.10" type="priority"/>
    <node id="10709092672" x="12230.47" y="3437.66" type="right_before_left"/>
    <node id="10709092674" x="12246.71" y="3543.41" type="priority"/>
    <node id="10709092684" x="12210.19" y="3418.50" type="priority"/>
    <node id="10709092690" x="12186.17" y="3490.53" type="right_before_left"/>
    <node id="10709092692" x="12243.30" y="3463.38" type="right_before_left"/>
    <node id="10709092807" x="12016.73" y="3807.42" type="right_before_left"/>
    <node id="10709092816" x="12147.50" y="3738.85" type="right_before_left"/>
    <node id="10709092822" x="11962.50" y="3718.54" type="right_before_left"/>
    <node id="10709092830" x="12247.06" y="3686.75" type="priority"/>
    <node id="10722339802" x="12260.18" y="3697.39" type="priority"/>
    <node id="10722339803" x="12265.01" y="3708.50" type="priority"/>
    <node id="10731436944" x="7602.46" y="4452.26" type="priority"/>
    <node id="10731436948" x="7572.41" y="4452.80" type="priority"/>
    <node id="10731436950" x="7731.70" y="4498.27" type="priority"/>
    <node id="10731436951" x="7583.62" y="4435.40" type="priority"/>
    <node id="10731436954" x="7519.00" y="4454.37" type="priority"/>
    <node id="10731436955" x="7508.63" y="4431.38" type="priority"/>
    <node id="10731436956" x="7528.42" y="4475.27" type="priority"/>
    <node id="10731436957" x="7492.43" y="4523.31" type="priority"/>
    <node id="10731436958" x="7609.92" y="4470.04" type="priority"/>
    <node id="10731436959" x="7600.26" y="4447.03" type="priority"/>
    <node id="10731436960" x="7616.39" y="4438.05" type="priority"/>
    <node id="10731436963" x="7664.94" y="4479.87" type="priority"/>
    <node id="10731436967" x="7727.42" y="4486.24" type="priority"/>
    <node id="10731436968" x="7715.74" y="4457.18" type="priority"/>
    <node id="10731436969" x="7752.33" y="4366.74" type="priority"/>
    <node id="10731436970" x="7762.01" y="4342.69" type="priority"/>
    <node id="10731436971" x="7749.62" y="4335.67" type="priority"/>
    <node id="10731436972" x="7739.69" y="4361.34" type="priority"/>
    <node id="10731436973" x="7791.97" y="4336.31" type="priority"/>
    <node id="10731436974" x="7776.09" y="4376.89" type="priority"/>
    <node id="10731436982" x="7683.10" y="4408.28" type="priority"/>
    <node id="10731505312" x="6837.51" y="4748.00" type="priority"/>
    <node id="10731505313" x="6870.97" y="4726.14" type="priority"/>
    <node id="10731505315" x="6850.50" y="4795.48" type="right_before_left"/>
    <node id="10731505326" x="6929.00" y="4832.06" type="priority"/>
    <node id="10731505327" x="6913.00" y="4813.07" type="priority"/>
    <node id="10731505328" x="6916.25" y="4833.92" type="priority"/>
    <node id="10731505329" x="6895.66" y="4814.93" type="priority"/>
    <node id="10731505330" x="6899.06" y="4836.44" type="priority"/>
    <node id="10731505331" x="6879.33" y="4817.66" type="priority"/>
    <node id="10731505332" x="6882.72" y="4838.84" type="priority"/>
    <node id="10731505333" x="6863.37" y="4819.99" type="priority"/>
    <node id="10731505334" x="6866.72" y="4841.19" type="priority"/>
    <node id="10731505335" x="6846.15" y="4823.13" type="priority"/>
    <node id="10731505336" x="6849.63" y="4843.69" type="priority"/>
    <node id="10731505337" x="7047.31" y="4845.26" type="priority"/>
    <node id="10731505338" x="7052.00" y="4847.02" type="priority"/>
    <node id="10731505343" x="6798.12" y="5131.79" type="dead_end"/>
    <node id="10731505345" x="6862.22" y="5119.66" type="priority"/>
    <node id="10731505346" x="6795.59" y="5116.30" type="dead_end"/>
    <node id="10731505347" x="6884.05" y="5136.05" type="priority"/>
    <node id="10731505350" x="6921.47" y="5129.15" type="priority"/>
    <node id="10731505351" x="6925.03" y="5120.86" type="priority"/>
    <node id="10731505358" x="6882.82" y="5166.82" type="right_before_left"/>
    <node id="10731505359" x="6883.55" y="5172.54" type="right_before_left"/>
    <node id="10731505360" x="6905.90" y="5164.66" type="priority"/>
    <node id="10731505362" x="6863.31" y="5167.50" type="priority"/>
    <node id="10731505370" x="6864.95" y="5178.90" type="priority"/>
    <node id="10731505371" x="6823.23" y="5363.68" type="priority"/>
    <node id="10731505374" x="6744.25" y="5742.15" type="priority"/>
    <node id="10731505375" x="6750.36" y="5781.28" type="dead_end"/>
    <node id="10731505376" x="6724.98" y="5744.76" type="priority"/>
    <node id="10731505383" x="6763.61" y="5739.52" type="priority"/>
    <node id="10731505384" x="6813.01" y="5783.24" type="dead_end"/>
    <node id="10731505385" x="6809.85" y="5756.30" type="priority"/>
    <node id="10731505391" x="6799.98" y="5785.43" type="priority"/>
    <node id="10736907238" x="8468.17" y="3752.00" type="priority"/>
    <node id="10736907239" x="8480.94" y="3741.92" type="priority"/>
    <node id="10736907240" x="8480.19" y="3740.97" type="priority"/>
    <node id="10736907241" x="8467.26" y="3751.19" type="priority"/>
    <node id="10736907243" x="8493.16" y="3734.19" type="priority"/>
    <node id="10736907244" x="8505.14" y="3724.74" type="priority"/>
    <node id="10741398061" x="7911.50" y="3693.34" type="priority"/>
    <node id="10741398062" x="7897.80" y="3684.25" type="priority"/>
    <node id="10741411611" x="7978.63" y="3758.41" type="priority"/>
    <node id="10741411612" x="8068.54" y="3900.07" type="priority"/>
    <node id="1077191430" x="9260.65" y="3847.88" type="priority"/>
    <node id="10773922076" x="7986.34" y="3048.47" type="priority"/>
    <node id="10773922081" x="9508.58" y="2873.43" type="priority"/>
    <node id="10773922082" x="9391.75" y="2904.54" type="priority"/>
    <node id="10773922085" x="9473.37" y="2972.06" type="priority"/>
    <node id="10773922086" x="9436.14" y="2923.57" type="right_before_left"/>
    <node id="10773922087" x="9382.67" y="2964.75" type="priority"/>
    <node id="10773977214" x="8342.70" y="2567.60" type="priority"/>
    <node id="10773977217" x="8379.74" y="2556.14" type="priority"/>
    <node id="10773977218" x="8328.02" y="2552.58" type="priority"/>
    <node id="10773977223" x="8278.42" y="2563.67" type="priority"/>
    <node id="10773977232" x="7343.86" y="2616.36" type="right_before_left"/>
    <node id="10773977235" x="7385.02" y="2593.75" type="priority"/>
    <node id="10773977236" x="7401.37" y="2605.13" type="priority"/>
    <node id="10773977240" x="7348.57" y="2636.63" type="right_before_left"/>
    <node id="10773977243" x="7416.29" y="2615.51" type="priority"/>
    <node id="10773977248" x="7351.99" y="2650.63" type="right_before_left"/>
    <node id="10773977253" x="7430.97" y="2625.73" type="priority"/>
    <node id="10773977258" x="7369.28" y="2582.79" type="priority"/>
    <node id="10773977263" x="6828.83" y="2963.35" type="priority"/>
    <node id="10773977273" x="6884.74" y="2690.79" type="priority"/>
    <node id="10773977274" x="6860.51" y="2697.67" type="priority"/>
    <node id="10773977276" x="6889.23" y="2711.56" type="right_before_left"/>
    <node id="10773977277" x="7088.29" y="2733.86" type="priority"/>
    <node id="10773977283" x="6923.62" y="2712.62" type="priority"/>
    <node id="10784210190" x="9236.57" y="993.48" type="right_before_left"/>
    <node id="1078796191" x="9227.58" y="4358.85" type="priority"/>
    <node id="1078796502" x="9179.10" y="4227.41" type="priority"/>
    <node id="1078797039" x="9191.12" y="4309.77" type="right_before_left"/>
    <node id="1078827002" x="8972.19" y="4346.77" type="right_before_left"/>
    <node id="1078827166" x="8978.88" y="4329.00" type="priority"/>
    <node id="1079010984" x="8924.10" y="4038.79" type="right_before_left"/>
    <node id="1079011164" x="8876.03" y="4116.57" type="priority"/>
    <node id="1079011405" x="8894.26" y="4121.73" type="dead_end"/>
    <node id="1079011861" x="8889.22" y="4111.14" type="dead_end"/>
    <node id="1079012159" x="8880.98" y="4128.01" type="priority"/>
    <node id="1079013313" x="8915.59" y="4019.41" type="right_before_left"/>
    <node id="1079013947" x="8931.83" y="4079.21" type="priority"/>
    <node id="10799973606" x="10868.26" y="4494.13" type="priority"/>
    <node id="10799973610" x="11245.17" y="4696.20" type="priority"/>
    <node id="10799973613" x="11180.13" y="4699.07" type="priority"/>
    <node id="10799973614" x="10524.15" y="4135.47" type="priority"/>
    <node id="10799973616" x="10494.83" y="4140.51" type="priority"/>
    <node id="10799973617" x="10368.31" y="4430.43" type="priority"/>
    <node id="10799973619" x="10396.17" y="4403.21" type="priority"/>
    <node id="10799973620" x="10538.11" y="4432.49" type="priority"/>
    <node id="10799973621" x="10520.23" y="4393.39" type="priority"/>
    <node id="10819783847" x="8073.27" y="4205.74" type="dead_end"/>
    <node id="1084038996" x="12151.15" y="3782.35" type="dead_end"/>
    <node id="1084039045" x="12054.11" y="3812.97" type="priority"/>
    <node id="1084039450" x="11945.65" y="3882.96" type="dead_end" fringe="inner">
        <param key="buffer_stop" value="true"/>
    </node>
    <node id="1084061398" x="11911.43" y="4067.69" type="priority"/>
    <node id="1084061400" x="11694.32" y="4095.13" type="priority"/>
    <node id="1084061403" x="11825.99" y="4064.43" type="priority"/>
    <node id="1084061407" x="12227.54" y="4108.16" type="priority"/>
    <node id="1084061416" x="11957.08" y="4042.05" type="priority"/>
    <node id="1084061424" x="11896.03" y="4069.76" type="priority"/>
    <node id="1084061425" x="11697.80" y="4104.16" type="priority"/>
    <node id="1084061428" x="11941.44" y="4044.52" type="priority"/>
    <node id="1084061453" x="11880.48" y="4071.94" type="priority"/>
    <node id="1084061458" x="11655.06" y="3954.72" type="priority"/>
    <node id="1084061465" x="11822.85" y="4048.42" type="priority"/>
    <node id="1084061467" x="11925.51" y="4047.05" type="priority"/>
    <node id="1084061470" x="11667.67" y="4091.49" type="priority"/>
    <node id="1084061481" x="11864.41" y="4074.43" type="priority"/>
    <node id="1084061487" x="11755.78" y="4012.31" type="priority"/>
    <node id="1084061511" x="11820.11" y="4032.27" type="priority"/>
    <node id="1084061513" x="11909.67" y="4049.20" type="priority"/>
    <node id="1084061514" x="11672.96" y="4104.37" type="priority"/>
    <node id="1084061515" x="11816.10" y="4003.86" type="priority"/>
    <node id="1084061519" x="11848.46" y="4076.69" type="priority"/>
    <node id="1084061522" x="11652.10" y="4020.62" type="priority"/>
    <node id="1084061525" x="11808.98" y="3942.14" type="priority"/>
    <node id="1084061526" x="11893.93" y="4051.19" type="priority"/>
    <node id="1084061538" x="11709.79" y="4080.45" type="priority"/>
    <node id="1084061556" x="11753.78" y="3999.42" type="priority"/>
    <node id="1084061565" x="11877.70" y="4053.87" type="priority"/>
    <node id="1084061571" x="11751.65" y="3983.51" type="priority"/>
    <node id="1084061572" x="11674.18" y="4056.38" type="priority"/>
    <node id="1084061575" x="11757.33" y="4024.30" type="priority"/>