<?xml version="1.0" encoding="UTF-8"?>

<!-- generated on 2025-04-08 20:10:23 by Eclipse SUMO netconvert Version 1.19.0
<configuration xmlns:xsi="http://www.w3.org/2001/XMLSchema-instance" xsi:noNamespaceSchemaLocation="http://sumo.dlr.de/xsd/netconvertConfiguration.xsd">

    <input>
        <sumo-net-file value="mantes_la_jolie/mantes_la_jolie.net.xml"/>
    </input>

    <output>
        <plain-output-prefix value="mantes_la_jolie/mantes_la_jolie"/>
    </output>

    <processing>
        <geometry.min-radius.fix.railways value="false"/>
        <geometry.max-grade.fix value="false"/>
        <offset.disable-normalization value="true"/>
        <lefthand value="0"/>
    </processing>

    <tls_building>
        <tls.ignore-internal-junction-jam value="1"/>
    </tls_building>

    <junctions>
        <no-turnarounds value="true"/>
        <junctions.corner-detail value="5"/>
        <junctions.limit-turn-speed value="5.50"/>
        <rectangular-lane-cut value="0"/>
    </junctions>

    <pedestrian>
        <walkingareas value="0"/>
    </pedestrian>

</configuration>
-->

<tlLogics version="1.16" xmlns:xsi="http://www.w3.org/2001/XMLSchema-instance" xsi:noNamespaceSchemaLocation="http://sumo.dlr.de/xsd/tllogic_file.xsd">
    <tlLogic id="10138368349" type="static" programID="0" offset="0">
        <phase duration="82" state="G"/>
        <phase duration="3"  state="y"/>
        <phase duration="5"  state="r"/>
    </tlLogic>
    <tlLogic id="10138368370" type="static" programID="0" offset="0">
        <phase duration="82" state="G"/>
        <phase duration="3"  state="y"/>
        <phase duration="5"  state="r"/>
    </tlLogic>
    <tlLogic id="1084061713" type="static" programID="0" offset="0">
        <phase duration="40" state="GGgrrrrGgg"/>
        <phase duration="5"  state="yyyrrrryyy"/>
        <phase duration="40" state="rrrGGGGrrr"/>
        <phase duration="5"  state="rrryyyyrrr"/>
    </tlLogic>
    <tlLogic id="11049478836" type="static" programID="0" offset="0">
        <phase duration="82" state="G"/>
        <phase duration="3"  state="y"/>
        <phase duration="5"  state="r"/>
    </tlLogic>
    <tlLogic id="1113658492" type="static" programID="0" offset="0">
        <phase duration="82" state="GG"/>
        <phase duration="3"  state="yy"/>
        <phase duration="5"  state="rr"/>
    </tlLogic>
    <tlLogic id="2173516398" type="static" programID="0" offset="0">
        <phase duration="42" state="GGGgGrrr"/>
        <phase duration="3"  state="yyyyyrrr"/>
        <phase duration="42" state="rrrrGGGG"/>
        <phase duration="3"  state="rrrryyyy"/>
    </tlLogic>
    <tlLogic id="3246614355" type="static" programID="0" offset="0">
        <phase duration="82" state="GG"/>
        <phase duration="3"  state="yy"/>
        <phase duration="5"  state="rr"/>
    </tlLogic>
    <tlLogic id="3246614357" type="static" programID="0" offset="0">
        <phase duration="82" state="G"/>
        <phase duration="3"  state="y"/>
        <phase duration="5"  state="r"/>
    </tlLogic>
    <tlLogic id="379663376" type="static" programID="0" offset="0">
        <phase duration="42" state="GgGgrr"/>
        <phase duration="3"  state="yyyyrr"/>
        <phase duration="42" state="rrrrGG"/>
        <phase duration="3"  state="rrrryy"/>
    </tlLogic>
    <tlLogic id="4060171169" type="static" programID="0" offset="0">
        <phase duration="82" state="GG"/>
        <phase duration="3"  state="yy"/>
        <phase duration="5"  state="rr"/>
    </tlLogic>
    <tlLogic id="484664121" type="static" programID="0" offset="0">
        <phase duration="27" state="rrrGGgGrr"/>
        <phase duration="3"  state="rrryyyyrr"/>
        <phase duration="27" state="rrrrrrGGG"/>
        <phase duration="3"  state="rrrrrryyy"/>
        <phase duration="27" state="GGGrrrrrr"/>
        <phase duration="3"  state="yyyrrrrrr"/>
    </tlLogic>
    <tlLogic id="484664127" type="static" programID="0" offset="0">
        <phase duration="42" state="rrrGggGGg"/>
        <phase duration="3"  state="rrryyyyyy"/>
        <phase duration="42" state="GGGrrrrrr"/>
        <phase duration="3"  state="yyyrrrrrr"/>
    </tlLogic>
    <tlLogic id="495146941" type="static" programID="0" offset="0">
        <phase duration="82" state="GGG"/>
        <phase duration="3"  state="yyy"/>
        <phase duration="5"  state="rrr"/>
    </tlLogic>
    <tlLogic id="528801875" type="static" programID="0" offset="0">
        <phase duration="42" state="GggrrrGGg"/>
        <phase duration="3"  state="yyyrrryyy"/>
        <phase duration="42" state="rrrGGgGrr"/>
        <phase duration="3"  state="rrryyyyrr"/>
    </tlLogic>
    <tlLogic id="540180467" type="static" programID="0" offset="0">
        <phase duration="27" state="GGgGrrrrr"/>
        <phase duration="3"  state="yyyyrrrrr"/>
        <phase duration="27" state="GrrrrrGGg"/>
        <phase duration="3"  state="yrrrrryyy"/>
        <phase duration="27" state="rrrGGGrrr"/>
        <phase duration="3"  state="rrryyyrrr"/>
    </tlLogic>
    <tlLogic id="5629756555" type="static" programID="0" offset="0">
        <phase duration="82" state="G"/>
        <phase duration="3"  state="y"/>
        <phase duration="5"  state="r"/>
    </tlLogic>
    <tlLogic id="600110571" type="static" programID="0" offset="0">
        <phase duration="42" state="rrGgGg"/>
        <phase duration="3"  state="rryyyy"/>
        <phase duration="42" state="GGrrrr"/>
        <phase duration="3"  state="yyrrrr"/>
    </tlLogic>
    <tlLogic id="600110573" type="static" programID="0" offset="0">
        <phase duration="42" state="GGggrrrrGGgg"/>
        <phase duration="3"  state="yyyyrrrryyyy"/>
        <phase duration="42" state="rrrrGGGgGrrr"/>
        <phase duration="3"  state="rrrryyyyyrrr"/>
    </tlLogic>
    <tlLogic id="615216458" type="static" programID="0" offset="0">
        <phase duration="42" state="GGgGggrrr"/>
        <phase duration="3"  state="yyyyyyrrr"/>
        <phase duration="42" state="GrrrrrGGg"/>
        <phase duration="3"  state="yrrrrryyy"/>
    </tlLogic>
    <tlLogic id="6286659488" type="static" programID="0" offset="0">
        <phase duration="82" state="G"/>
        <phase duration="3"  state="y"/>
        <phase duration="5"  state="r"/>
    </tlLogic>
    <tlLogic id="6286659492" type="static" programID="0" offset="0">
        <phase duration="82" state="GG"/>
        <phase duration="3"  state="yy"/>
        <phase duration="5"  state="rr"/>
    </tlLogic>
    <tlLogic id="6627228639" type="static" programID="0" offset="0">
        <phase duration="39" state="GGgrrGg"/>
        <phase duration="6"  state="yyyrryy"/>
        <phase duration="39" state="rrrGGrr"/>
        <phase duration="6"  state="rrryyrr"/>
    </tlLogic>
    <tlLogic id="6895140584" type="static" programID="0" offset="0">
        <phase duration="82" state="G"/>
        <phase duration="3"  state="y"/>
        <phase duration="5"  state="r"/>
    </tlLogic>
    <tlLogic id="6895174293" type="static" programID="0" offset="0">
        <phase duration="82" state="G"/>
        <phase duration="3"  state="y"/>
        <phase duration="5"  state="r"/>
    </tlLogic>
    <tlLogic id="6895174295" type="static" programID="0" offset="0">
        <phase duration="82" state="G"/>
        <phase duration="3"  state="y"/>
        <phase duration="5"  state="r"/>
    </tlLogic>
    <tlLogic id="7474598458" type="static" programID="0" offset="0">
        <phase duration="82" state="GG"/>
        <phase duration="3"  state="yy"/>
        <phase duration="5"  state="rr"/>
    </tlLogic>
    <tlLogic id="7474598460" type="static" programID="0" offset="0">
        <phase duration="82" state="GG"/>
        <phase duration="3"  state="yy"/>
        <phase duration="5"  state="rr"/>
    </tlLogic>
    <tlLogic id="7562881021" type="static" programID="0" offset="0">
        <phase duration="82" state="GG"/>
        <phase duration="3"  state="yy"/>
        <phase duration="5"  state="rr"/>
    </tlLogic>
    <tlLogic id="7562904246" type="static" programID="0" offset="0">
        <phase duration="82" state="GG"/>
        <phase duration="3"  state="yy"/>
        <phase duration="5"  state="rr"/>
    </tlLogic>
    <tlLogic id="7562910913" type="static" programID="0" offset="0">
        <phase duration="82" state="G"/>
        <phase duration="3"  state="y"/>
        <phase duration="5"  state="r"/>
    </tlLogic>
    <tlLogic id="7569633335" type="static" programID="0" offset="0">
        <phase duration="82" state="G"/>
        <phase duration="3"  state="y"/>
        <phase duration="5"  state="r"/>
    </tlLogic>
    <tlLogic id="8909891813" type="static" programID="0" offset="0">
        <phase duration="82" state="G"/>
        <phase duration="3"  state="y"/>
        <phase duration="5"  state="r"/>
    </tlLogic>
    <tlLogic id="8909891816" type="static" programID="0" offset="0">
        <phase duration="82" state="G"/>
        <phase duration="3"  state="y"/>
        <phase duration="5"  state="r"/>
    </tlLogic>
    <tlLogic id="8930974148" type="static" programID="0" offset="0">
        <phase duration="82" state="G"/>
        <phase duration="3"  state="y"/>
        <phase duration="5"  state="r"/>
    </tlLogic>
    <tlLogic id="8930974153" type="static" programID="0" offset="0">
        <phase duration="82" state="G"/>
        <phase duration="3"  state="y"/>
        <phase duration="5"  state="r"/>
    </tlLogic>
    <tlLogic id="9968101226" type="static" programID="0" offset="0">
        <phase duration="82" state="G"/>
        <phase duration="3"  state="y"/>
        <phase duration="5"  state="r"/>
    </tlLogic>
    <tlLogic id="joinedS_1138880668_1138880755" type="static" programID="0" offset="0">
        <phase duration="82" state="GGGGGG"/>
        <phase duration="3"  state="yyyyyy"/>
        <phase duration="5"  state="rrrrrr"/>
    </tlLogic>
    <tlLogic id="joinedS_2166935496_379663371" type="static" programID="0" offset="0">
        <phase duration="40" state="rrGGGGGrr"/>
        <phase duration="5"  state="rryyyyyrr"/>
        <phase duration="40" state="GGrrrrrGG"/>
        <phase duration="5"  state="yyrrrrryy"/>
    </tlLogic>
    <tlLogic id="joinedS_2265030749_2265030765_484610236" type="static" programID="0" offset="0">
        <phase duration="9"  state="GGrrrrrrrrrr"/>
        <phase duration="6"  state="yyrrrrrrrrrr"/>
        <phase duration="9"  state="rrGGrrrrrrrr"/>
        <phase duration="6"  state="rryyrrrrrrrr"/>
        <phase duration="9"  state="rrrrGGrrrrrr"/>
        <phase duration="6"  state="rrrryyrrrrrr"/>
        <phase duration="9"  state="rrrrrrGGrrrr"/>
        <phase duration="6"  state="rrrrrryyrrrr"/>
        <phase duration="9"  state="rrrrrrrrGGrr"/>
        <phase duration="6"  state="rrrrrrrryyrr"/>
        <phase duration="9"  state="rrrrrrrrrrGG"/>
        <phase duration="6"  state="rrrrrrrrrryy"/>
    </tlLogic>
    <tlLogic id="joinedS_3246354282_3246354283_3246354285" type="static" programID="0" offset="0">
        <phase duration="10" state="GGGrrrrrrGGGrr"/>
        <phase duration="5"  state="yyyrrrrrryyyrr"/>
        <phase duration="10" state="rrrGGrrrrGGGrr"/>
        <phase duration="5"  state="rrryyrrrryyyrr"/>
        <phase duration="10" state="rrrrrGGGrrrrrr"/>
        <phase duration="5"  state="rrrrryyyrrrrrr"/>
        <phase duration="10" state="rrrrrrrrGrrrrr"/>
        <phase duration="5"  state="rrrrrrrryrrrrr"/>
        <phase duration="10" state="rrrrrrrrrrrrGr"/>
        <phase duration="5"  state="rrrrrrrrrrrryr"/>
        <phase duration="10" state="rrrrrrrrrrrrrG"/>
        <phase duration="5"  state="rrrrrrrrrrrrry"/>
    </tlLogic>
    <tlLogic id="joinedS_3246354326_528801946" type="static" programID="0" offset="0">
        <phase duration="27" state="GrGGggrrrrGGggrrrr"/>
        <phase duration="3"  state="yryyyyrrrryyyyrrrr"/>
        <phase duration="27" state="GrrrrrGGGgGrrrrrrr"/>
        <phase duration="3"  state="yrrrrryyyyyrrrrrrr"/>
        <phase duration="27" state="GGGrrrrrrrrrrrGGGg"/>
        <phase duration="3"  state="yyyrrrrrrrrrrryyyy"/>
    </tlLogic>
    <tlLogic id="joinedS_3247021772_3247021774_614732247" type="static" programID="0" offset="0">
        <phase duration="15" state="GgggGrgGgggGrgGrGgGggrGrrrrrgrrrrrgrGggggggggg"/>
        <phase duration="3"  state="yyyyyryyyyyyryyryyyyyryrrrrryrrrrryryyyyyyyyyy"/>
        <phase duration="15" state="rrrrGGgrrrrGGgrrGGrrrrrrrrrrrrrrrrrrrrrrrGGGGG"/>
        <phase duration="3"  state="rrrryyyrrrryyyrryyrrrrrrrrrrrrrrrrrrrrrrryyyyy"/>
        <phase duration="15" state="rrrrGGGrrrrrrrGGGgrrrGGGGGrrrrrrrrrrrrrrrrrrrr"/>
        <phase duration="3"  state="rrrryyyrrrrrrryyyyrrryyyyyrrrrrrrrrrrrrrrrrrrr"/>
        <phase duration="15" state="rrrrGGGrrrrrrrrrGGrrrrrrrrGGGGGrrrrrrrrrrrrrrr"/>
        <phase duration="3"  state="rrrryyyrrrrrrrrryyrrrrrrrryyyyyrrrrrrrrrrrrrrr"/>
        <phase duration="15" state="rrrrGGGrrrrrrrrrGGrrrrrrrrrrrrrGGGGGrrrrrrrrrr"/>
        <phase duration="3"  state="rrrryyyrrrrrrrrryyrrrrrrrrrrrrryyyyyrrrrrrrrrr"/>
    </tlLogic>
    <tlLogic id="joinedS_379663366_600110405" type="static" programID="0" offset="0">
        <phase duration="27" state="rGrrrrrGggGGg"/>
        <phase duration="3"  state="ryrrrrryyyyyy"/>
        <phase duration="27" state="GGrrGGGrrrrrr"/>
        <phase duration="3"  state="yyrryyyrrrrrr"/>
        <phase duration="27" state="rrGGGGGrrrrrr"/>
        <phase duration="3"  state="rryyyyyrrrrrr"/>
    </tlLogic>
    <tlLogic id="joinedS_495146922_614732746" type="static" programID="0" offset="0">
        <phase duration="27" state="GggrrrGGgrrGgGg"/>
        <phase duration="3"  state="yyyrrryyyrryyyy"/>
        <phase duration="27" state="rrrGGgGrrrrGGrr"/>
        <phase duration="3"  state="rrryyyyrrrryyrr"/>
        <phase duration="27" state="GrrrrrGGgGgGrrr"/>
        <phase duration="3"  state="yrrrrryyyyyyrrr"/>
    </tlLogic>
    <tlLogic id="joinedS_5710376296_5710504308_9975882080" type="static" programID="0" offset="0">
        <phase duration="27" state="GGGGGGr"/>
        <phase duration="3"  state="yyyyyyr"/>
        <phase duration="27" state="GGGGGGr"/>
        <phase duration="3"  state="yyyyyyr"/>
        <phase duration="27" state="GGGGGrG"/>
        <phase duration="3"  state="yyyyyry"/>
    </tlLogic>
    <tlLogic id="joinedS_9975882137_9975882142" type="static" programID="0" offset="0">
        <phase duration="42" state="GGGrrrrrrrrrGGGrrr"/>
        <phase duration="3"  state="yyyrrrrrrrrryyyrrr"/>
        <phase duration="42" state="rrrGggGGgGGgrrrGgg"/>
        <phase duration="3"  state="rrryyyyyyyyyrrryyy"/>
    </tlLogic>

    <connection from="-1079538611" to="560374486#1" fromLane="0" toLane="0" tl="joinedS_3247021772_3247021774_614732247" linkIndex="0"/>
    <connection from="-1079538611" to="-1154087981#0" fromLane="0" toLane="0" tl="joinedS_3247021772_3247021774_614732247" linkIndex="1"/>
    <connection from="-1079538611" to="-560374486#0" fromLane="0" toLane="0" tl="joinedS_3247021772_3247021774_614732247" linkIndex="2"/>
    <connection from="-1079538611" to="1154087981#1" fromLane="0" toLane="0" tl="joinedS_3247021772_3247021774_614732247" linkIndex="3"/>
    <connection from="-1088106855#1" to="-403681826#3" fromLane="0" toLane="0" tl="joinedS_3246354326_528801946" linkIndex="10"/>
    <connection from="-1088106855#1" to="-27581895#2" fromLane="0" toLane="0" tl="joinedS_3246354326_528801946" linkIndex="11"/>
    <connection from="-1088106855#1" to="-984694223#1" fromLane="0" toLane="0" tl="joinedS_3246354326_528801946" linkIndex="12"/>
    <connection from="-1088106855#1" to="1088106855#0" fromLane="0" toLane="0" tl="joinedS_3246354326_528801946" linkIndex="13"/>
    <connection from="-1090209808#4" to="-40679916#1" fromLane="0" toLane="0" tl="joinedS_495146922_614732746" linkIndex="6"/>
    <connection from="-1090209808#4" to="-1090209808#3" fromLane="0" toLane="0" tl="joinedS_495146922_614732746" linkIndex="7"/>
    <connection from="-1090209808#4" to="1090209808#4" fromLane="0" toLane="0" tl="joinedS_495146922_614732746" linkIndex="8"/>
    <connection from="-1276122756#1" to="-1276122756#0" fromLane="0" toLane="0" tl="11847523844" linkIndex="1"/>
    <connection from="-1276122765#1" to="-1276122765#0" fromLane="0" toLane="0" tl="11847523885" linkIndex="0"/>
    <connection from="-200571508#0" to="-431916954#1" fromLane="0" toLane="0" tl="joinedS_9975882137_9975882142" linkIndex="3"/>
    <connection from="-200571508#0" to="1088933260#2" fromLane="0" toLane="0" tl="joinedS_9975882137_9975882142" linkIndex="4"/>
    <connection from="-200571508#0" to="431916954#2" fromLane="0" toLane="0" tl="joinedS_9975882137_9975882142" linkIndex="5"/>
    <connection from="-200571508#1" to="1088933261#1" fromLane="0" toLane="0" tl="joinedS_9975882137_9975882142" linkIndex="9"/>
    <connection from="-200571508#1" to="-200571508#0" fromLane="0" toLane="0" tl="joinedS_9975882137_9975882142" linkIndex="10"/>
    <connection from="-200571508#1" to="200571508#1" fromLane="0" toLane="0" tl="joinedS_9975882137_9975882142" linkIndex="11"/>
    <connection from="-27581897#1" to="858026064" fromLane="0" toLane="0" tl="joinedS_2265030749_2265030765_484610236" linkIndex="2"/>
    <connection from="-27581897#1" to="27581897#0" fromLane="0" toLane="0" tl="joinedS_2265030749_2265030765_484610236" linkIndex="3"/>
    <connection from="-27581897#6" to="-27581897#2" fromLane="0" toLane="0" tl="379663376" linkIndex="2"/>
    <connection from="-27581897#6" to="27581897#3" fromLane="0" toLane="0" tl="379663376" linkIndex="3"/>
    <connection from="-288039367#9" to="-288039367#8" fromLane="0" toLane="0" tl="3246614355" linkIndex="0"/>
    <connection from="-29108507#1" to="857540449#0" fromLane="0" toLane="0" tl="joinedS_2265030749_2265030765_484610236" linkIndex="4"/>
    <connection from="-29108507#1" to="29108507#0" fromLane="0" toLane="0" tl="joinedS_2265030749_2265030765_484610236" linkIndex="5"/>
    <connection from="-361851014#0" to="560370857#0" fromLane="0" toLane="0" tl="495146941" linkIndex="0"/>
    <connection from="-361851014#0" to="361851013#0" fromLane="0" toLane="0" tl="495146941" linkIndex="1"/>
    <connection from="-361851014#0" to="361851014#0" fromLane="0" toLane="0" tl="495146941" linkIndex="2"/>
    <connection from="-40205758#1" to="857540448" fromLane="0" toLane="0" tl="joinedS_2265030749_2265030765_484610236" linkIndex="8"/>
    <connection from="-40205758#1" to="40205758#0" fromLane="0" toLane="0" tl="joinedS_2265030749_2265030765_484610236" linkIndex="9"/>
    <connection from="-40209640#1" to="1089809989#0" fromLane="0" toLane="0" tl="484664121" linkIndex="3"/>
    <connection from="-40209640#1" to="-560321615#6" fromLane="0" toLane="0" tl="484664121" linkIndex="4"/>
    <connection from="-40209640#1" to="40209640#0" fromLane="0" toLane="0" tl="484664121" linkIndex="5"/>
    <connection from="-40209640#4" to="43115320#0" fromLane="0" toLane="0" tl="540180467" linkIndex="6"/>
    <connection from="-40209640#4" to="-40209640#3" fromLane="0" toLane="0" tl="540180467" linkIndex="7"/>
    <connection from="-40209640#4" to="40209640#4" fromLane="0" toLane="0" tl="540180467" linkIndex="8"/>
    <connection from="-40209640#7" to="-40209640#6" fromLane="0" toLane="0" tl="7474598458" linkIndex="1"/>
    <connection from="-40209643#2" to="-40209643#0" fromLane="0" toLane="0" tl="4060171169" linkIndex="0"/>
    <connection from="-40209644#6" to="-40209644#5" fromLane="0" toLane="0" tl="1113658492" linkIndex="0"/>
    <connection from="-403681827#1" to="-318261808#1" fromLane="0" toLane="0" tl="600110573" linkIndex="8"/>
    <connection from="-403681827#1" to="-42354215#5" fromLane="0" toLane="0" tl="600110573" linkIndex="9"/>
    <connection from="-403681827#1" to="47050400#0" fromLane="0" toLane="0" tl="600110573" linkIndex="10"/>
    <connection from="-403681827#1" to="403681827#0" fromLane="0" toLane="0" tl="600110573" linkIndex="11"/>
    <connection from="-403681827#3" to="-403681827#1" fromLane="0" toLane="0" tl="600110571" linkIndex="4"/>
    <connection from="-403681827#3" to="403681827#2" fromLane="0" toLane="0" tl="600110571" linkIndex="5"/>
    <connection from="-430505398" to="1089459491" fromLane="0" toLane="0" tl="joinedS_379663366_600110405" linkIndex="10"/>
    <connection from="-430505398" to="-1089459504" fromLane="0" toLane="0" tl="joinedS_379663366_600110405" linkIndex="11"/>
    <connection from="-430505398" to="430505398" fromLane="0" toLane="0" tl="joinedS_379663366_600110405" linkIndex="12"/>
    <connection from="-46949974#4" to="-46949974#3" fromLane="0" toLane="0" tl="11848135275" linkIndex="0"/>
    <connection from="-47050501#0" to="1088106860#6" fromLane="0" toLane="0" tl="joinedS_379663366_600110405" linkIndex="2"/>
    <connection from="-47050501#0" to="47050501#0" fromLane="0" toLane="0" tl="joinedS_379663366_600110405" linkIndex="3"/>
    <connection from="-48402006#0" to="-1090209808#4" fromLane="0" toLane="0" tl="joinedS_495146922_614732746" linkIndex="9"/>
    <connection from="-48402006#0" to="48402006#0" fromLane="0" toLane="0" tl="joinedS_495146922_614732746" linkIndex="10"/>
    <connection from="-48439919#6" to="-48439916" fromLane="0" toLane="0" tl="615216458" linkIndex="0"/>
    <connection from="-48439919#6" to="-48439919#5" fromLane="0" toLane="0" tl="615216458" linkIndex="1"/>
    <connection from="-48439919#6" to="48439919#6" fromLane="0" toLane="0" tl="615216458" linkIndex="2"/>
    <connection from="-497188439#1" to="-497188439#0" fromLane="0" toLane="0" tl="7605359235" linkIndex="0"/>
    <connection from="-560301941#1" to="-47050474#2" fromLane="0" toLane="0" tl="528801875" linkIndex="6"/>
    <connection from="-560301941#1" to="-560301941#0" fromLane="0" toLane="0" tl="528801875" linkIndex="7"/>
    <connection from="-560301941#1" to="560301941#1" fromLane="0" toLane="0" tl="528801875" linkIndex="8"/>
    <connection from="-560321615#0" to="-40205758#8" fromLane="0" toLane="0" tl="484664127" linkIndex="3"/>
    <connection from="-560321615#0" to="40209641#0" fromLane="0" toLane="0" tl="484664127" linkIndex="4"/>
    <connection from="-560321615#0" to="560321615#0" fromLane="0" toLane="0" tl="484664127" linkIndex="5"/>
    <connection from="-560370847#1" to="-560370847#0" fromLane="0" toLane="0" tl="joinedS_3247021772_3247021774_614732247" linkIndex="16"/>
    <connection from="-560370847#1" to="-1154087982" fromLane="0" toLane="0" tl="joinedS_3247021772_3247021774_614732247" linkIndex="17"/>
    <connection from="-560374486#0" to="-1154087980" fromLane="0" toLane="0" tl="joinedS_3247021772_3247021774_614732247" linkIndex="41"/>
    <connection from="-560374486#0" to="60355259#0" fromLane="0" toLane="0" tl="joinedS_3247021772_3247021774_614732247" linkIndex="42"/>
    <connection from="-560374486#0" to="-560370850#1" fromLane="0" toLane="0" tl="joinedS_3247021772_3247021774_614732247" linkIndex="43"/>
    <connection from="-560374486#0" to="-560370847#1" fromLane="0" toLane="0" tl="joinedS_3247021772_3247021774_614732247" linkIndex="44"/>
    <connection from="-560374486#0" to="560374486#0" fromLane="0" toLane="0" tl="joinedS_3247021772_3247021774_614732247" linkIndex="45"/>
    <connection from="-560374486#1" to="-1154087981#0" fromLane="0" toLane="0" tl="joinedS_3247021772_3247021774_614732247" linkIndex="11"/>
    <connection from="-560374486#1" to="-560374486#0" fromLane="0" toLane="0" tl="joinedS_3247021772_3247021774_614732247" linkIndex="12"/>
    <connection from="-560374486#1" to="1154087981#1" fromLane="0" toLane="0" tl="joinedS_3247021772_3247021774_614732247" linkIndex="13"/>
    <connection from="-576654803#10" to="-576654803#9" fromLane="0" toLane="0" tl="7605359147" linkIndex="1"/>
    <connection from="-576654803#6" to="-576654803#5" fromLane="0" toLane="0" tl="7605359186" linkIndex="1"/>
    <connection from="-60355259#1" to="-560370850#1" fromLane="0" toLane="0" tl="joinedS_3247021772_3247021774_614732247" linkIndex="31"/>
    <connection from="-60355259#1" to="-560370847#1" fromLane="0" toLane="0" tl="joinedS_3247021772_3247021774_614732247" linkIndex="32"/>
    <connection from="-60355259#1" to="560374486#0" fromLane="0" toLane="0" tl="joinedS_3247021772_3247021774_614732247" linkIndex="33"/>
    <connection from="-60355259#1" to="-1154087980" fromLane="0" toLane="0" tl="joinedS_3247021772_3247021774_614732247" linkIndex="34"/>
    <connection from="-60355259#1" to="60355259#0" fromLane="0" toLane="0" tl="joinedS_3247021772_3247021774_614732247" linkIndex="35"/>
    <connection from="-683651547#2" to="-683651547#1" fromLane="0" toLane="0" tl="7474598460" linkIndex="0"/>
    <connection from="-705397555" to="-855363135" fromLane="0" toLane="0" tl="6627228639" linkIndex="5"/>
    <connection from="-705397555" to="705397555" fromLane="1" toLane="1" tl="6627228639" linkIndex="6"/>
    <connection from="-814129866#4" to="-814129866#3" fromLane="0" toLane="0" tl="7605196496" linkIndex="0"/>
    <connection from="-814129866#5" to="-814129866#4" fromLane="0" toLane="0" tl="7605196495" linkIndex="1"/>
    <connection from="-814129868#1" to="-814129868#0" fromLane="0" toLane="0" tl="7605196490" linkIndex="1"/>
    <connection from="-814129868#2" to="-814129868#1" fromLane="0" toLane="0" tl="7605196489" linkIndex="1"/>
    <connection from="-814129868#3" to="-814129868#2" fromLane="0" toLane="0" tl="7605196488" linkIndex="1"/>
    <connection from="-814129868#5" to="-814129868#4" fromLane="0" toLane="0" tl="7605196486" linkIndex="1"/>
    <connection from="-814129868#6" to="-814129868#5" fromLane="0" toLane="0" tl="7605196485" linkIndex="1"/>
    <connection from="-814129871#7" to="-814129871#6" fromLane="0" toLane="0" tl="7605196524" linkIndex="1"/>
    <connection from="-814129871#8" to="-814129871#7" fromLane="0" toLane="0" tl="7605196523" linkIndex="0"/>
    <connection from="-814129871#9" to="-814129871#8" fromLane="0" toLane="0" tl="7605196521" linkIndex="1"/>
    <connection from="-814145378#4" to="-814145378#3" fromLane="0" toLane="0" tl="7605346673" linkIndex="0"/>
    <connection from="-814145378#5" to="-814145378#4" fromLane="0" toLane="0" tl="7605346674" linkIndex="0"/>
    <connection from="-814145378#6" to="-814145378#5" fromLane="0" toLane="0" tl="7605346675" linkIndex="0"/>
    <connection from="-814145392#1" to="-814145392#0" fromLane="0" toLane="0" tl="1029876632" linkIndex="1"/>
    <connection from="-88720088#1" to="-88720088#0" fromLane="0" toLane="0" tl="1029876668" linkIndex="1"/>
    <connection from="-88720088#14" to="-88720088#13" fromLane="0" toLane="0" tl="7605359220" linkIndex="1"/>
    <connection from="-88720088#15" to="-88720088#14" fromLane="0" toLane="0" tl="7605359221" linkIndex="1"/>
    <connection from="-88720093#5" to="-88720093#4" fromLane="0" toLane="0" tl="1029876255" linkIndex="1"/>
    <connection from="-88720093#8" to="-88720093#7" fromLane="0" toLane="0" tl="7605359096" linkIndex="1"/>
    <connection from="-88720095#3" to="-88720095#2" fromLane="0" toLane="0" tl="1029875310" linkIndex="1"/>
    <connection from="-93508617#0" to="-93508602#3" fromLane="0" toLane="0" tl="1084061713" linkIndex="7"/>
    <connection from="-93508617#0" to="231265513#3" fromLane="0" toLane="1" tl="1084061713" linkIndex="8"/>
    <connection from="-93508617#0" to="93508617#0" fromLane="0" toLane="0" tl="1084061713" linkIndex="9"/>
    <connection from="-984694223#1" to="-984694223#0" fromLane="0" toLane="0" tl="joinedS_3246354326_528801946" linkIndex="0"/>
    <connection from="1087995123#0" to="1087995123#1" fromLane="0" toLane="0" tl="7562904246" linkIndex="0"/>
    <connection from="1087995123#0" to="1087995123#1" fromLane="1" toLane="1" tl="7562904246" linkIndex="1"/>
    <connection from="1088106860#4" to="1088106860#6" fromLane="0" toLane="0" tl="joinedS_379663366_600110405" linkIndex="0"/>
    <connection from="1088106860#4" to="47050501#0" fromLane="0" toLane="0" tl="joinedS_379663366_600110405" linkIndex="1"/>
    <connection from="1088106860#6" to="430505398" fromLane="0" toLane="0" tl="joinedS_379663366_600110405" linkIndex="4"/>
    <connection from="1088106860#6" to="1089459491" fromLane="0" toLane="0" tl="joinedS_379663366_600110405" linkIndex="5"/>
    <connection from="1088106860#6" to="-1089459504" fromLane="0" toLane="0" tl="joinedS_379663366_600110405" linkIndex="6"/>
    <connection from="1088933260#0" to="-431916954#1" fromLane="0" toLane="0" tl="joinedS_9975882137_9975882142" linkIndex="0"/>
    <connection from="1088933260#0" to="1088933260#2" fromLane="0" toLane="0" tl="joinedS_9975882137_9975882142" linkIndex="1"/>
    <connection from="1088933260#0" to="431916954#2" fromLane="0" toLane="0" tl="joinedS_9975882137_9975882142" linkIndex="2"/>
    <connection from="1088933261#0" to="200571508#1" fromLane="0" toLane="0" tl="joinedS_9975882137_9975882142" linkIndex="12"/>
    <connection from="1088933261#0" to="1088933261#1" fromLane="0" toLane="0" tl="joinedS_9975882137_9975882142" linkIndex="13"/>
    <connection from="1088933261#0" to="-200571508#0" fromLane="0" toLane="0" tl="joinedS_9975882137_9975882142" linkIndex="14"/>
    <connection from="1089459504" to="430505398" fromLane="0" toLane="0" tl="joinedS_379663366_600110405" linkIndex="7"/>
    <connection from="1089459504" to="1089459491" fromLane="0" toLane="0" tl="joinedS_379663366_600110405" linkIndex="8"/>
    <connection from="1089459504" to="-1089459504" fromLane="0" toLane="0" tl="joinedS_379663366_600110405" linkIndex="9"/>
    <connection from="1090209808#3" to="1090209808#4" fromLane="0" toLane="0" tl="joinedS_495146922_614732746" linkIndex="0"/>
    <connection from="1090209808#3" to="-40679916#1" fromLane="0" toLane="0" tl="joinedS_495146922_614732746" linkIndex="1"/>
    <connection from="1090209808#3" to="-1090209808#3" fromLane="0" toLane="0" tl="joinedS_495146922_614732746" linkIndex="2"/>