<edges xmlns:xsi="http://www.w3.org/2001/XMLSchema-instance" version="1.16" xsi:noNamespaceSchemaLocation="http://sumo.dlr.de/xsd/edges_file.xsd">
    <location netOffset="-397053.72,-5423062.57" convBoundary="0.00,0.00,15686.92,8413.09" origBoundary="1.592153,48.953423,1.807858,49.029195" projParameter="+proj=utm +zone=31 +ellps=WGS84 +datum=WGS84 +units=m +no_defs" />

    <edge id="-1023342727#0" from="1560521518" to="1560521526" priority="3" type="highway.residential" numLanes="1" speed="13.89" shape="6093.05,2666.60 6079.91,2665.24 6059.17,2669.59" disallow="tram rail_urban rail rail_electric rail_fast ship" />
    <edge id="-1023342727#1" from="1560521526" to="1560521518" priority="3" type="highway.residential" numLanes="1" speed="13.89" shape="6059.17,2669.59 6071.59,2679.91 6089.68,2681.96 6094.17,2675.26 6093.05,2666.60" disallow="tram rail_urban rail rail_electric rail_fast ship" />
    <edge id="-1023342728" from="1560521526" to="1560521457" priority="3" type="highway.residential" numLanes="1" speed="13.89" shape="6059.17,2669.59 6043.16,2649.52 6043.82,2640.26" disallow="tram rail_urban rail rail_electric rail_fast ship" />
    <edge id="-1023342729" from="1560521457" to="1560521447" priority="3" type="highway.residential" numLanes="1" speed="13.89" disallow="tram rail_urban rail rail_electric rail_fast ship" />
    <edge id="-1037081852" from="599360549" to="9553824397" priority="3" type="highway.residential" numLanes="1" speed="13.89" shape="11284.52,3479.39 11283.40,3484.62 11285.31,3501.62" disallow="tram rail_urban rail rail_electric rail_fast ship" />
    <edge id="-1041496289" from="614732213" to="9983551995" priority="10" type="highway.tertiary" numLanes="1" speed="22.22" shape="6896.21,4440.29 6895.34,4430.20 6894.79,4423.97 6894.25,4415.37 6893.45,4408.15 6891.81,4399.06 6890.06,4389.93 6884.68,4367.61 6880.23,4349.31 6867.08,4298.33 6858.96,4267.43 6858.36,4263.53 6857.23,4258.37 6856.14,4254.76 6855.03,4252.68" disallow="tram rail_urban rail rail_electric rail_fast ship" />
    <edge id="-1059162252#0" from="11024934587" to="9731715287" priority="3" type="highway.residential" numLanes="1" speed="13.89" shape="6735.71,1579.74 6767.57,1566.52 6772.49,1562.93" disallow="tram rail_urban rail rail_electric rail_fast ship" />
    <edge id="-1059162252#1" from="9731715270" to="11024934587" priority="3" type="highway.residential" numLanes="1" speed="13.89" shape="6655.14,1574.74 6668.13,1596.87 6670.03,1600.11 6670.66,1601.26 6671.40,1602.15 6672.28,1602.74 6673.33,1603.16 6674.51,1603.15 6675.72,1602.98 6678.49,1602.18 6724.17,1584.53 6735.71,1579.74" disallow="tram rail_urban rail rail_electric rail_fast ship" />
    <edge id="-1059162253#0" from="9731715284" to="9731715286" priority="3" type="highway.residential" numLanes="1" speed="13.89" disallow="tram rail_urban rail rail_electric rail_fast ship" />
    <edge id="-1059162253#1" from="9731715285" to="9731715284" priority="3" type="highway.residential" numLanes="1" speed="13.89" disallow="tram rail_urban rail rail_electric rail_fast ship" />
    <edge id="-1059162254#0" from="9731715286" to="9731715288" priority="3" type="highway.residential" numLanes="1" speed="13.89" disallow="tram rail_urban rail rail_electric rail_fast ship" />
    <edge id="-1059162254#1" from="11024934589" to="9731715286" priority="3" type="highway.residential" numLanes="1" speed="13.89" shape="6757.38,1523.75 6752.92,1512.17 6744.89,1491.36" disallow="tram rail_urban rail rail_electric rail_fast ship" />
    <edge id="-1059162254#2" from="9731715287" to="11024934589" priority="3" type="highway.residential" numLanes="1" speed="13.89" shape="6772.49,1562.93 6759.08,1528.14 6757.38,1523.75" disallow="tram rail_urban rail rail_electric rail_fast ship" />
    <edge id="-1079849001" from="484664100" to="8143156926" priority="3" type="highway.residential" numLanes="1" speed="8.33" shape="9175.59,3666.38 9171.09,3669.19 9137.39,3692.03 9114.84,3707.01" disallow="tram rail_urban rail rail_electric rail_fast ship" />
    <edge id="-1082667839" from="705031296" to="705031251" priority="3" type="highway.residential" numLanes="1" speed="13.89" disallow="tram rail_urban rail rail_electric rail_fast ship" />
    <edge id="-1087786391#1" from="494093838" to="494093834" priority="3" type="highway.residential" numLanes="1" speed="13.89" shape="7841.87,4356.28 7868.83,4426.13 7870.53,4430.55 7873.35,4436.78" disallow="tram rail_urban rail rail_electric rail_fast ship" />
    <edge id="-1087786391#2" from="494093832" to="494093838" priority="3" type="highway.residential" numLanes="1" speed="13.89" shape="7815.06,4288.08 7817.77,4295.22 7841.87,4356.28" disallow="tram rail_urban rail rail_electric rail_fast ship" />
    <edge id="-1087786397#0" from="5612240958" to="588512603" priority="3" type="highway.residential" numLanes="1" speed="8.33" disallow="tram rail_urban rail rail_electric rail_fast ship" />
    <edge id="-1087786397#1" from="588512611" to="5612240958" priority="3" type="highway.residential" numLanes="1" speed="8.33" shape="6089.27,5438.25 6109.26,5435.62 6242.76,5415.36" disallow="tram rail_urban rail rail_electric rail_fast ship" />
    <edge id="-1087786397#2" from="1475725386" to="588512611" priority="3" type="highway.residential" numLanes="1" speed="8.33" disallow="tram rail_urban rail rail_electric rail_fast ship" />
    <edge id="-1087786397#3" from="588512581" to="1475725386" priority="3" type="highway.residential" numLanes="1" speed="8.33" disallow="tram rail_urban rail rail_electric rail_fast ship" />
    <edge id="-1087786398#0" from="4881426151" to="588512616" priority="10" type="highway.tertiary" numLanes="1" speed="13.89" shape="6255.96,5424.34 6283.13,5540.84 6286.18,5553.72 6288.71,5564.41" disallow="tram rail_urban rail rail_electric rail_fast ship" />
    <edge id="-1087786398#1" from="588512603" to="4881426151" priority="10" type="highway.tertiary" numLanes="1" speed="13.89" disallow="tram rail_urban rail rail_electric rail_fast ship" />
    <edge id="-1087786431" from="614732399" to="9966756781" priority="11" type="highway.secondary" numLanes="1" speed="13.89" disallow="tram rail_urban rail rail_electric rail_fast ship" />
    <edge id="-1087933103#0" from="2162904283" to="599666643" priority="3" type="highway.residential" numLanes="1" speed="8.33" shape="10301.75,5827.36 10323.55,5817.17 10342.07,5808.45" disallow="tram rail_urban rail rail_electric rail_fast ship" />
    <edge id="-1087933103#1" from="599666631" to="2162904283" priority="3" type="highway.residential" numLanes="1" speed="8.33" disallow="tram rail_urban rail rail_electric rail_fast ship" />
    <edge id="-1087933107" from="599666149" to="9967995749" priority="3" type="highway.residential" numLanes="1" speed="13.89" disallow="tram rail_urban rail rail_electric rail_fast ship" />
    <edge id="-1087933109" from="9967995757" to="599360636" priority="3" type="highway.residential" numLanes="1" speed="13.89" disallow="tram rail_urban rail rail_electric rail_fast ship" />
    <edge id="-1087933117" from="7412764736" to="479838189" priority="11" type="highway.secondary" numLanes="1" speed="13.89" shape="10781.35,5669.08 10781.08,5673.93 10781.22,5679.40 10781.64,5684.00 10782.48,5688.69" disallow="tram rail_urban rail rail_electric rail_fast ship" />
    <edge id="-1087933122" from="599666711" to="4589476771" priority="3" type="highway.residential" numLanes="1" speed="13.89" disallow="tram rail_urban rail rail_electric rail_fast ship" />
    <edge id="-1087933124" from="9967998545" to="599666731" priority="3" type="highway.residential" numLanes="1" speed="13.89" disallow="tram rail_urban rail rail_electric rail_fast ship" />
    <edge id="-1087933125#0" from="599666007" to="599666008" priority="11" type="highway.secondary" numLanes="1" speed="13.89" disallow="tram rail_urban rail rail_electric rail_fast ship" />
    <edge id="-1087933125#1" from="3916272775" to="599666007" priority="11" type="highway.secondary" numLanes="1" speed="13.89" disallow="tram rail_urban rail rail_electric rail_fast ship" />
    <edge id="-1087933125#2" from="9967998547" to="3916272775" priority="11" type="highway.secondary" numLanes="1" speed="13.89" disallow="tram rail_urban rail rail_electric rail_fast ship" />
    <edge id="-1087944004" from="9968101220" to="614734047" priority="3" type="highway.residential" numLanes="1" speed="13.89" disallow="tram rail_urban rail rail_electric rail_fast ship" />
    <edge id="-1087944005" from="615216683" to="747153952" priority="3" type="highway.residential" numLanes="1" speed="8.33" disallow="tram rail_urban rail rail_electric rail_fast ship" />
    <edge id="-1087944008" from="614733954" to="614733811" priority="3" type="highway.residential" numLanes="1" speed="8.33" shape="7695.08,5612.20 7693.95,5617.60 7691.51,5623.16 7686.71,5630.64 7679.32,5639.97 7668.27,5652.50 7659.27,5661.24 7646.25,5672.64 7636.20,5679.76 7624.46,5688.60" disallow="tram rail_urban rail rail_electric rail_fast ship" />
    <edge id="-1087944012" from="494093834" to="302850393" priority="3" type="highway.residential" numLanes="1" speed="13.89" disallow="tram rail_urban rail rail_electric rail_fast ship" />
    <edge id="-1087944013" from="614734047" to="5404065752" priority="3" type="highway.residential" numLanes="1" speed="8.33" shape="7516.49,5721.80 7512.87,5722.94 7509.35,5723.00 7504.20,5722.41 7491.54,5720.27 7484.16,5719.03 7478.04,5718.63 7456.77,5718.55 7451.93,5718.64" disallow="tram rail_urban rail rail_electric rail_fast ship" />
    <edge id="-1087995089" from="8321151279" to="3701462622" priority="3" type="highway.residential" numLanes="1" speed="13.89" shape="8062.38,2566.89 8060.03,2551.22 8047.22,2466.12 8046.32,2459.69" disallow="tram rail_urban rail rail_electric rail_fast ship" />
    <edge id="-1087995090#0" from="600110410" to="600110490" priority="3" type="highway.residential" numLanes="1" speed="13.89" shape="7829.01,2908.98 7950.50,2888.85 8058.29,2882.13" disallow="tram rail_urban rail rail_electric rail_fast ship" />
    <edge id="-1087995090#1" from="705022544" to="600110410" priority="3" type="highway.residential" numLanes="1" speed="13.89" shape="7701.62,2886.75 7703.99,2890.05 7706.98,2893.14 7709.66,2895.58 7712.45,2897.55 7715.89,2898.62 7725.26,2900.94 7766.40,2908.82 7829.01,2908.98" disallow="tram rail_urban rail rail_electric rail_fast ship" />
    <edge id="-1087995091" from="1560522048" to="1560522417" priority="3" type="highway.residential" numLanes="1" speed="13.89" shape="5680.97,2926.89 5689.66,2935.27 5695.95,2944.74 5716.22,2978.24 5718.02,2981.03 5744.13,3023.24 5764.24,3050.05 5775.28,3061.11" disallow="tram rail_urban rail rail_electric rail_fast ship" />
    <edge id="-1087995105" from="9968552136" to="9968552208" priority="11" type="highway.secondary" numLanes="1" speed="13.89" disallow="tram rail_urban rail rail_electric rail_fast ship">
        <param key="ref" value="D 110" />
    </edge>
    <edge id="-1087995118" from="9968101228" to="615216717" priority="3" type="highway.residential" numLanes="1" speed="13.89" disallow="tram rail_urban rail rail_electric rail_fast ship" />
    <edge id="-1087995120" from="615216704" to="615216706" priority="3" type="highway.residential" numLanes="1" speed="8.33" shape="7215.13,5275.34 7221.14,5292.83 7243.28,5353.09 7255.98,5388.52 7259.04,5398.02" disallow="tram rail_urban rail rail_electric rail_fast ship" />
    <edge id="-1087995127#0" from="614733036" to="495146930" priority="3" type="highway.residential" numLanes="1" speed="13.89" shape="8543.50,4928.76 8538.85,4923.14 8494.33,4869.27 8453.75,4819.99 8448.72,4814.17 8447.12,4813.02 8445.39,4812.07 8443.14,4811.45" disallow="tram rail_urban rail rail_electric rail_fast ship" />
    <edge id="-1087995127#1" from="495146929" to="614733036" priority="3" type="highway.residential" numLanes="1" speed="13.89" disallow="tram rail_urban rail rail_electric rail_fast ship" />
    <edge id="-1087995128#0" from="1905247816" to="5618476634" priority="3" type="highway.residential" numLanes="1" speed="13.89" shape="7151.98,5546.24 7182.38,5548.74 7271.17,5529.57 7284.05,5527.76" disallow="tram rail_urban rail rail_electric rail_fast ship" />
    <edge id="-1087995128#1" from="1905247878" to="1905247816" priority="3" type="highway.residential" numLanes="1" speed="13.89" disallow="tram rail_urban rail rail_electric rail_fast ship" />
    <edge id="-1087995129" from="5404065755" to="615216704" priority="3" type="highway.residential" numLanes="1" speed="8.33" shape="7109.81,4986.11 7204.96,5247.42 7215.13,5275.34" disallow="tram rail_urban rail rail_electric rail_fast ship" />
    <edge id="-1087995130#0" from="8762575887" to="615216700" priority="3" type="highway.residential" numLanes="1" speed="8.33" shape="6766.70,5617.00 6756.68,5618.36 6741.64,5620.66 6727.28,5622.85 6713.37,5624.66 6684.08,5628.47" disallow="tram rail_urban rail rail_electric rail_fast ship" />
    <edge id="-1087995130#1" from="615216685" to="8762575887" priority="3" type="highway.residential" numLanes="1" speed="8.33" disallow="tram rail_urban rail rail_electric rail_fast ship" />
    <edge id="-1087995134#0" from="11884752503" to="5403976346" priority="3" type="highway.residential" numLanes="1" speed="8.33" shape="8469.85,4776.94 8472.02,4773.90 8482.95,4754.10 8491.59,4738.70 8510.53,4704.91 8513.89,4698.88 8513.47,4694.61 8511.17,4689.51" disallow="tram rail_urban rail rail_electric rail_fast ship" />
    <edge id="-1087995134#1" from="495146930" to="11884752503" priority="3" type="highway.residential" numLanes="1" speed="8.33" shape="8443.14,4811.45 8443.62,4809.06 8444.66,4807.00 8447.21,4804.16 8454.25,4796.81 8463.87,4785.29 8469.85,4776.94" disallow="tram rail_urban rail rail_electric rail_fast ship" />
    <edge id="-1088014263" from="705022424" to="9968738194" priority="3" type="highway.residential" numLanes="1" speed="13.89" disallow="tram rail_urban rail rail_electric rail_fast ship" />
    <edge id="-1088014265#0" from="12049919589" to="705022424" priority="3" type="highway.residential" numLanes="1" speed="13.89" shape="6576.39,1563.33 6574.94,1564.17 6555.06,1575.03 6550.54,1578.01 6547.83,1580.41 6545.23,1583.68 6543.19,1586.76" disallow="tram rail_urban rail rail_electric rail_fast ship" />
    <edge id="-1088014265#1" from="2166963352" to="12049919589" priority="3" type="highway.residential" numLanes="1" speed="13.89" shape="6583.44,1558.72 6579.59,1561.47 6576.39,1563.33" disallow="tram rail_urban rail rail_electric rail_fast ship" />
    <edge id="-1088014265#2" from="9968735264" to="2166963352" priority="3" type="highway.residential" numLanes="1" speed="13.89" shape="6609.19,1539.24 6590.65,1553.27 6583.44,1558.72" disallow="tram rail_urban rail rail_electric rail_fast ship" />
    <edge id="-1088014265#3" from="11024934701" to="9968735264" priority="3" type="highway.residential" numLanes="1" speed="13.89" shape="6620.18,1530.93 6616.20,1533.95 6609.19,1539.24" disallow="tram rail_urban rail rail_electric rail_fast ship" />
    <edge id="-1088014265#4" from="11024934709" to="11024934701" priority="3" type="highway.residential" numLanes="1" speed="13.89" disallow="tram rail_urban rail rail_electric rail_fast ship" />
    <edge id="-1088014265#5" from="9731715288" to="11024934709" priority="3" type="highway.residential" numLanes="1" speed="13.89" shape="6734.22,1466.21 6656.70,1504.66 6630.23,1523.33 6628.28,1524.81" disallow="tram rail_urban rail rail_electric rail_fast ship" />
    <edge id="-1088014265#6" from="705022472" to="9731715288" priority="3" type="highway.residential" numLanes="1" speed="13.89" shape="6841.49,1417.77 6744.94,1460.38 6734.22,1466.21" disallow="tram rail_urban rail rail_electric rail_fast ship" />
    <edge id="-1088014272#0" from="12049859959" to="9968738279" priority="3" type="highway.residential" numLanes="1" speed="13.89" shape="7533.72,2234.49 7533.05,2240.45 7530.21,2246.88 7506.39,2265.59 7425.76,2326.37" disallow="tram rail_urban rail rail_electric rail_fast ship" />
    <edge id="-1088014272#1" from="705022270" to="12049859959" priority="3" type="highway.residential" numLanes="1" speed="13.89" shape="7514.51,2196.10 7532.67,2222.30 7534.18,2230.42 7533.72,2234.49" disallow="tram rail_urban rail rail_electric rail_fast ship" />
    <edge id="-1088014282" from="588519006" to="9968738147" priority="3" type="highway.residential" numLanes="1" speed="13.89" disallow="tram rail_urban rail rail_electric rail_fast ship" />
    <edge id="-1088014284#2" from="528801947" to="600110594" priority="11" type="highway.secondary" numLanes="1" speed="13.89" shape="8538.95,3329.20 8570.46,3273.23 8572.10,3270.44 8577.49,3260.72" disallow="tram rail_urban rail rail_electric rail_fast ship">
        <param key="ref" value="D 65" />
    </edge>
    <edge id="-1088014284#3" from="600110595" to="528801947" priority="11" type="highway.secondary" numLanes="1" speed="13.89" shape="8460.07,3469.29 8466.21,3458.39 8534.36,3337.35 8538.95,3329.20" disallow="tram rail_urban rail rail_electric rail_fast ship">
        <param key="ref" value="D 65" />
    </edge>
    <edge id="-1088014284#4" from="528801948" to="600110595" priority="11" type="highway.secondary" numLanes="1" speed="13.89" disallow="tram rail_urban rail rail_electric rail_fast ship">
        <param key="ref" value="D 65" />
    </edge>
    <edge id="-1088014288" from="705022687" to="705022650" priority="12" type="highway.primary" numLanes="1" speed="13.89" shape="6612.21,1664.11 6639.44,1728.37 6688.06,1841.49" disallow="tram rail_urban rail rail_electric rail_fast ship">
        <param key="ref" value="D 928" />
    </edge>
    <edge id="-1088106832" from="705022604" to="705022558" priority="3" type="highway.residential" numLanes="1" speed="13.89" shape="6832.65,1827.62 6826.67,1829.58 6821.46,1832.46 6811.93,1840.41" disallow="tram rail_urban rail rail_electric rail_fast ship" />
    <edge id="-1088106833#0" from="705022593" to="705022694" priority="3" type="highway.residential" numLanes="1" speed="13.89" disallow="tram rail_urban rail rail_electric rail_fast ship" />
    <edge id="-1088106833#1" from="12049919604" to="705022593" priority="3" type="highway.residential" numLanes="1" speed="13.89" shape="6804.53,1852.66 6791.69,1868.39 6763.52,1892.03 6738.25,1910.36 6728.73,1917.26" disallow="tram rail_urban rail rail_electric rail_fast ship" />
    <edge id="-1088106833#2" from="705022558" to="12049919604" priority="3" type="highway.residential" numLanes="1" speed="13.89" shape="6811.93,1840.41 6805.88,1850.99 6804.53,1852.66" disallow="tram rail_urban rail rail_electric rail_fast ship" />
    <edge id="-1088106835" from="9968552111" to="7980318076" priority="3" type="highway.residential" numLanes="1" speed="13.89" disallow="tram rail_urban rail rail_electric rail_fast ship" />
    <edge id="-1088106840" from="9969485104" to="599202314" priority="3" type="highway.residential" numLanes="1" speed="13.89" disallow="tram rail_urban rail rail_electric rail_fast ship" />
    <edge id="-1088106854" from="3246354305" to="379663358" priority="11" type="highway.secondary" numLanes="1" speed="13.89" disallow="tram rail_urban rail rail_electric rail_fast ship">
        <param key="ref" value="D 928" />
    </edge>
    <edge id="-1088106855#1" from="4714722840" to="528801946" priority="11" type="highway.secondary" numLanes="1" speed="13.89" shape="8202.18,3653.54 8286.62,3731.89 8303.44,3747.50" disallow="tram rail_urban rail rail_electric rail_fast ship">
        <param key="ref" value="D 928" />
    </edge>
    <edge id="-1088106855#2" from="3246354321" to="4714722840" priority="11" type="highway.secondary" numLanes="1" speed="13.89" disallow="tram rail_urban rail rail_electric rail_fast ship">
        <param key="ref" value="D 928" />
    </edge>
    <edge id="-1088106857#0" from="9969485053" to="8895858647" priority="11" type="highway.secondary" numLanes="1" speed="13.89" disallow="tram rail_urban rail rail_electric rail_fast ship">
        <param key="ref" value="D 928" />
    </edge>
    <edge id="-1088106857#1" from="379663355" to="9969485053" priority="11" type="highway.secondary" numLanes="1" speed="13.89" shape="8072.53,3534.27 8086.22,3543.53 8095.33,3551.02 8106.16,3561.61 8115.65,3570.71" disallow="tram rail_urban rail rail_electric rail_fast ship">
        <param key="ref" value="D 928" />
    </edge>
    <edge id="-1088933233#0" from="749281832" to="588518893" priority="10" type="highway.tertiary" numLanes="1" speed="13.89" shape="6463.75,3776.48 6440.03,3772.83 6431.53,3771.37" disallow="tram rail_urban rail rail_electric rail_fast ship" />
    <edge id="-1088933236" from="9975882467" to="9975860511" priority="3" type="highway.residential" numLanes="1" speed="13.89" allow="bus bicycle" />
    <edge id="-1088933256#0" from="9975882074" to="9975882077" priority="3" type="highway.residential" numLanes="1" speed="13.89" disallow="tram rail_urban rail rail_electric rail_fast ship" />
    <edge id="-1088933256#1" from="600110834" to="9975882074" priority="3" type="highway.residential" numLanes="1" speed="13.89" shape="8958.67,1770.93 8970.14,1772.28 8982.71,1768.83 8988.28,1766.47 8991.46,1764.99 8995.11,1762.26" disallow="tram rail_urban rail rail_electric rail_fast ship" />
    <edge id="-1088933256#2" from="2121517649" to="600110834" priority="3" type="highway.residential" numLanes="1" speed="13.89" shape="8882.03,1636.45 8905.07,1668.52 8919.87,1706.98 8940.11,1755.22 8948.71,1765.13 8958.67,1770.93" disallow="tram rail_urban rail rail_electric rail_fast ship" />
    <edge id="-1088933256#3" from="600110745" to="2121517649" priority="3" type="highway.residential" numLanes="1" speed="13.89" shape="8878.56,1632.04 8880.18,1634.13 8882.03,1636.45" disallow="tram rail_urban rail rail_electric rail_fast ship" />
    <edge id="-1088933275" from="751090488" to="9969531688" priority="10" type="highway.tertiary" numLanes="1" speed="13.89" disallow="tram rail_urban rail rail_electric rail_fast ship" />
    <edge id="-1088933285" from="9975882921" to="4861314964" priority="4" type="highway.unclassified" numLanes="1" speed="13.89" shape="6063.24,3659.82 6061.74,3664.11 6059.01,3670.52 6047.51,3693.57 6019.69,3750.36 5998.43,3793.41 5976.43,3837.15" disallow="tram rail_urban rail rail_electric rail_fast ship" />
    <edge id="-1089459486#0" from="600110236" to="528801847" priority="10" type="highway.tertiary" numLanes="1" speed="8.33" shape="8688.42,1776.06 8683.74,1748.51 8677.42,1717.84 8672.78,1695.60 8660.99,1676.45 8641.11,1653.41" disallow="tram rail_urban rail rail_electric rail_fast ship" />
    <edge id="-1089459486#1" from="600110237" to="600110236" priority="10" type="highway.tertiary" numLanes="1" speed="8.33" shape="8700.85,1872.32 8695.68,1841.04 8688.42,1776.06" disallow="tram rail_urban rail rail_electric rail_fast ship" />
    <edge id="-1089459487" from="600110114" to="705022519" priority="3" type="highway.residential" numLanes="1" speed="13.89" disallow="tram rail_urban rail rail_electric rail_fast ship" />
    <edge id="-1089459488" from="705022544" to="600110409" priority="3" type="highway.residential" numLanes="1" speed="13.89" shape="7701.62,2886.75 7711.99,2885.00 7719.67,2882.72 7726.35,2880.17 7769.46,2856.14 7794.19,2842.29 7804.56,2836.48" disallow="tram rail_urban rail rail_electric rail_fast ship" />
    <edge id="-1089459489" from="600110410" to="600110409" priority="3" type="highway.residential" numLanes="1" speed="13.89" disallow="tram rail_urban rail rail_electric rail_fast ship" />
    <edge id="-1089459493" from="588518957" to="588518968" priority="3" type="highway.residential" numLanes="1" speed="13.89" shape="7549.74,3517.65 7557.44,3529.53 7598.58,3592.95 7603.17,3600.03" disallow="tram rail_urban rail rail_electric rail_fast ship" />
    <edge id="-1089459496#0" from="600110693" to="8320577028" priority="3" type="highway.residential" numLanes="1" speed="13.89" shape="8824.04,1528.52 8850.45,1581.18 8857.79,1597.42" disallow="tram rail_urban rail rail_electric rail_fast ship" />
    <edge id="-1089459496#1" from="2121517653" to="600110693" priority="3" type="highway.residential" numLanes="1" speed="13.89" shape="8787.86,1463.46 8797.99,1480.55 8811.86,1506.34 8819.96,1520.41 8824.04,1528.52" disallow="tram rail_urban rail rail_electric rail_fast ship" />
    <edge id="-1089459497" from="8320577028" to="9975882061" priority="3" type="highway.residential" numLanes="1" speed="13.89" shape="8857.79,1597.42 8859.92,1601.68 8860.68,1603.34" disallow="tram rail_urban rail rail_electric rail_fast ship" />
    <edge id="-1089459501" from="9969531663" to="600110474" priority="3" type="highway.residential" numLanes="1" speed="13.89" disallow="tram rail_urban rail rail_electric rail_fast ship" />
    <edge id="-1089459504" from="600110405" to="9979822943" priority="3" type="highway.residential" numLanes="1" speed="13.89" disallow="tram rail_urban rail rail_electric rail_fast ship" />
    <edge id="-1089459505#0" from="4883870194" to="4297707336" priority="3" type="highway.residential" numLanes="1" speed="8.33" disallow="tram rail_urban rail rail_electric rail_fast ship" />
    <edge id="-1089459505#1" from="762020049" to="4883870194" priority="3" type="highway.residential" numLanes="1" speed="8.33" shape="7335.17,3353.16 7346.18,3345.91 7397.63,3312.35 7406.00,3307.44" disallow="tram rail_urban rail rail_electric rail_fast ship" />
    <edge id="-1089809990#0" from="568028101" to="568028040" priority="3" type="highway.residential" numLanes="1" speed="13.89" shape="9362.71,3270.04 9332.86,3229.43 9330.45,3225.65" disallow="tram rail_urban rail rail_electric rail_fast ship" />
    <edge id="-1089809990#1" from="568028110" to="568028101" priority="3" type="highway.residential" numLanes="1" speed="13.89" disallow="tram rail_urban rail rail_electric rail_fast ship" />
    <edge id="-1089809991" from="568028039" to="568028040" priority="3" type="highway.residential" numLanes="1" speed="13.89" shape="9351.55,3220.18 9347.60,3219.03 9343.79,3221.25 9339.26,3222.63 9330.45,3225.65" disallow="tram rail_urban rail rail_electric rail_fast ship" />
    <edge id="-1089809992" from="563991382" to="568028123" priority="3" type="highway.residential" numLanes="1" speed="13.89" disallow="tram rail_urban rail rail_electric rail_fast ship" />
    <edge id="-1089821633#2" from="7995110969" to="614732856" priority="11" type="highway.secondary" numLanes="1" speed="13.89" shape="8636.78,4115.11 8633.97,4116.28 8631.60,4117.28 8629.29,4118.25" disallow="tram rail_urban rail rail_electric rail_fast ship">
        <param key="ref" value="D 113" />
    </edge>
    <edge id="-1089821635" from="600110594" to="9983036463" priority="11" type="highway.secondary" numLanes="1" speed="13.89" disallow="tram rail_urban rail rail_electric rail_fast ship">
        <param key="ref" value="D 65" />
    </edge>
    <edge id="-1089821642" from="9969531714" to="379663357" priority="3" type="highway.residential" numLanes="1" speed="13.89" disallow="tram rail_urban rail rail_electric rail_fast ship" />
    <edge id="-1089821644#0" from="3246614367" to="600110585" priority="3" type="highway.residential" numLanes="1" speed="8.33" disallow="tram rail_urban rail rail_electric rail_fast ship" />
    <edge id="-1089821644#1" from="588519026" to="3246614367" priority="3" type="highway.residential" numLanes="1" speed="8.33" disallow="tram rail_urban rail rail_electric rail_fast ship" />
    <edge id="-1089821644#2" from="588519021" to="588519026" priority="3" type="highway.residential" numLanes="1" speed="8.33" shape="8385.80,3376.82 8380.05,3381.51 8313.97,3446.39" disallow="tram rail_urban rail rail_electric rail_fast ship" />
    <edge id="-1089821645" from="528801948" to="8321073456" priority="3" type="highway.residential" numLanes="1" speed="13.89" shape="8452.68,3482.42 8449.58,3481.03 8444.79,3478.90" disallow="tram rail_urban rail rail_electric rail_fast ship" />
    <edge id="-1089821647" from="9969531694" to="588519032" priority="3" type="highway.residential" numLanes="1" speed="13.89" disallow="tram rail_urban rail rail_electric rail_fast ship" />
    <edge id="-1089821650#0" from="614732875" to="484504403" priority="3" type="highway.residential" numLanes="1" speed="13.89" shape="8613.53,4469.29 8542.98,4389.89 8541.31,4388.00 8539.63,4386.11" disallow="tram rail_urban rail rail_electric rail_fast ship" />
    <edge id="-1089821650#1" from="11884738868" to="614732875" priority="3" type="highway.residential" numLanes="1" speed="13.89" disallow="tram rail_urban rail rail_electric rail_fast ship" />
    <edge id="-1089821650#2" from="495146868" to="11884738868" priority="3" type="highway.residential" numLanes="1" speed="13.89" shape="8674.46,4539.68 8671.82,4536.64 8623.82,4481.18" disallow="tram rail_urban rail rail_electric rail_fast ship" />
    <edge id="-1089821653" from="2223079824" to="495146951" priority="3" type="highway.residential" numLanes="1" speed="8.33" shape="7688.19,5414.49 7686.09,5392.15 7685.06,5380.31 7682.57,5353.10 7680.32,5336.78 7676.85,5327.20" disallow="tram rail_urban rail rail_electric rail_fast ship" />
    <edge id="-1089939848#0" from="599666975" to="599666890" priority="3" type="highway.residential" numLanes="1" speed="13.89" disallow="tram rail_urban rail rail_electric rail_fast ship" />
    <edge id="-1089939848#1" from="599666954" to="599666975" priority="3" type="highway.residential" numLanes="1" speed="13.89" disallow="tram rail_urban rail rail_electric rail_fast ship" />
    <edge id="-1089939850" from="599666799" to="599666781" priority="3" type="highway.residential" numLanes="1" speed="13.89" shape="11057.58,5255.11 11045.41,5248.25 11003.99,5224.93 10993.48,5218.96 10989.06,5216.04 10982.69,5211.82 10971.66,5203.21 10960.11,5193.71 10948.19,5182.08" disallow="tram rail_urban rail rail_electric rail_fast ship" />