<additional>
<laneAreaDetector id="-1010239942_det" lane="-1010239942_0" pos="0" length="5.00" file="NUL" friendlyPos="True"/>
<laneAreaDetector id="-104290265#0_det" lane="-104290265#0_0" pos="0" length="5.00" file="NUL" friendlyPos="True"/>
<laneAreaDetector id="-104290265#1_det" lane="-104290265#1_0" pos="0" length="5.00" file="NUL" friendlyPos="True"/>
<laneAreaDetector id="-104290266#0_det" lane="-104290266#0_0" pos="0" length="5.00" file="NUL" friendlyPos="True"/>
<laneAreaDetector id="-104290266#1_det" lane="-104290266#1_0" pos="0" length="5.00" file="NUL" friendlyPos="True"/>
<laneAreaDetector id="-104290267#1_det" lane="-104290267#1_0" pos="0" length="5.00" file="NUL" friendlyPos="True"/>
<laneAreaDetector id="-104290267#2_det" lane="-104290267#2_0" pos="0" length="5.00" file="NUL" friendlyPos="True"/>
<laneAreaDetector id="-104290267#3_det" lane="-104290267#3_0" pos="0" length="5.00" file="NUL" friendlyPos="True"/>
<laneAreaDetector id="-104290269#0_det" lane="-104290269#0_0" pos="0" length="5.00" file="NUL" friendlyPos="True"/>
<laneAreaDetector id="-104290269#1_det" lane="-104290269#1_0" pos="0" length="5.00" file="NUL" friendlyPos="True"/>
<laneAreaDetector id="-104290269#2_det" lane="-104290269#2_0" pos="0" length="5.00" file="NUL" friendlyPos="True"/>
<laneAreaDetector id="-104290269#3_det" lane="-104290269#3_0" pos="0" length="5.00" file="NUL" friendlyPos="True"/>
<laneAreaDetector id="-104290270#0_det" lane="-104290270#0_0" pos="0" length="5.00" file="NUL" friendlyPos="True"/>
<laneAreaDetector id="-104290270#1_det" lane="-104290270#1_0" pos="0" length="5.00" file="NUL" friendlyPos="True"/>
<laneAreaDetector id="-104290271#0_det" lane="-104290271#0_0" pos="0" length="5.00" file="NUL" friendlyPos="True"/>
<laneAreaDetector id="-104290271#1_det" lane="-104290271#1_0" pos="0" length="5.00" file="NUL" friendlyPos="True"/>
<laneAreaDetector id="-104290272_det" lane="-104290272_0" pos="0" length="5.00" file="NUL" friendlyPos="True"/>
<laneAreaDetector id="-104290274#0_det" lane="-104290274#0_0" pos="0" length="5.00" file="NUL" friendlyPos="True"/>
<laneAreaDetector id="-104290274#1_det" lane="-104290274#1_0" pos="0" length="5.00" file="NUL" friendlyPos="True"/>
<laneAreaDetector id="-104290276#0_det" lane="-104290276#0_0" pos="0" length="5.00" file="NUL" friendlyPos="True"/>
<laneAreaDetector id="-104290276#1_det" lane="-104290276#1_0" pos="0" length="5.00" file="NUL" friendlyPos="True"/>
<laneAreaDetector id="-104290276#2_det" lane="-104290276#2_0" pos="0" length="5.00" file="NUL" friendlyPos="True"/>
<laneAreaDetector id="-104290277_det" lane="-104290277_0" pos="0" length="5.00" file="NUL" friendlyPos="True"/>
<laneAreaDetector id="-104290279#0_det" lane="-104290279#0_0" pos="0" length="5.00" file="NUL" friendlyPos="True"/>
<laneAreaDetector id="-104290279#1_det" lane="-104290279#1_0" pos="0" length="5.00" file="NUL" friendlyPos="True"/>
<laneAreaDetector id="-104290279#10_det" lane="-104290279#10_0" pos="0" length="5.00" file="NUL" friendlyPos="True"/>
<laneAreaDetector id="-104290279#11_det" lane="-104290279#11_0" pos="0" length="5.00" file="NUL" friendlyPos="True"/>
<laneAreaDetector id="-104290279#12_det" lane="-104290279#12_0" pos="0" length="5.00" file="NUL" friendlyPos="True"/>
<laneAreaDetector id="-104290279#13_det" lane="-104290279#13_0" pos="0" length="5.00" file="NUL" friendlyPos="True"/>
<laneAreaDetector id="-104290279#2_det" lane="-104290279#2_0" pos="0" length="5.00" file="NUL" friendlyPos="True"/>
<laneAreaDetector id="-104290279#3_det" lane="-104290279#3_0" pos="0" length="5.00" file="NUL" friendlyPos="True"/>
<laneAreaDetector id="-104290279#4_det" lane="-104290279#4_0" pos="0" length="5.00" file="NUL" friendlyPos="True"/>
<laneAreaDetector id="-104290279#5_det" lane="-104290279#5_0" pos="0" length="5.00" file="NUL" friendlyPos="True"/>
<laneAreaDetector id="-104290279#6_det" lane="-104290279#6_0" pos="0" length="5.00" file="NUL" friendlyPos="True"/>
<laneAreaDetector id="-104290279#7_det" lane="-104290279#7_0" pos="0" length="5.00" file="NUL" friendlyPos="True"/>
<laneAreaDetector id="-104290279#8_det" lane="-104290279#8_0" pos="0" length="5.00" file="NUL" friendlyPos="True"/>
<laneAreaDetector id="-104290279#9_det" lane="-104290279#9_0" pos="0" length="5.00" file="NUL" friendlyPos="True"/>
<laneAreaDetector id="-104290280#0_det" lane="-104290280#0_0" pos="0" length="5.00" file="NUL" friendlyPos="True"/>
<laneAreaDetector id="-104290282_det" lane="-104290282_0" pos="0" length="5.00" file="NUL" friendlyPos="True"/>
<laneAreaDetector id="-104290283#0_det" lane="-104290283#0_0" pos="0" length="5.00" file="NUL" friendlyPos="True"/>
<laneAreaDetector id="-104290283#1_det" lane="-104290283#1_0" pos="0" length="5.00" file="NUL" friendlyPos="True"/>
<laneAreaDetector id="-104290285#0_det" lane="-104290285#0_0" pos="0" length="5.00" file="NUL" friendlyPos="True"/>
<laneAreaDetector id="-104290285#1_det" lane="-104290285#1_0" pos="0" length="5.00" file="NUL" friendlyPos="True"/>
<laneAreaDetector id="-104290285#2_det" lane="-104290285#2_0" pos="0" length="5.00" file="NUL" friendlyPos="True"/>
<laneAreaDetector id="-104290286_det" lane="-104290286_0" pos="0" length="5.00" file="NUL" friendlyPos="True"/>
<laneAreaDetector id="-104290289_det" lane="-104290289_0" pos="0" length="5.00" file="NUL" friendlyPos="True"/>
<laneAreaDetector id="-104290291#0_det" lane="-104290291#0_0" pos="0" length="5.00" file="NUL" friendlyPos="True"/>
<laneAreaDetector id="-104290291#1_det" lane="-104290291#1_0" pos="0" length="5.00" file="NUL" friendlyPos="True"/>
<laneAreaDetector id="-104290293#0_det" lane="-104290293#0_0" pos="0" length="5.00" file="NUL" friendlyPos="True"/>
<laneAreaDetector id="-104290293#1_det" lane="-104290293#1_0" pos="0" length="5.00" file="NUL" friendlyPos="True"/>
<laneAreaDetector id="-104290295#0_det" lane="-104290295#0_0" pos="0" length="5.00" file="NUL" friendlyPos="True"/>
<laneAreaDetector id="-104290295#1_det" lane="-104290295#1_0" pos="0" length="5.00" file="NUL" friendlyPos="True"/>
<laneAreaDetector id="-104290296#0_det" lane="-104290296#0_0" pos="0" length="5.00" file="NUL" friendlyPos="True"/>
<laneAreaDetector id="-104290296#1_det" lane="-104290296#1_0" pos="0" length="5.00" file="NUL" friendlyPos="True"/>
<laneAreaDetector id="-104290296#2_det" lane="-104290296#2_0" pos="0" length="5.00" file="NUL" friendlyPos="True"/>
<laneAreaDetector id="-104290296#3_det" lane="-104290296#3_0" pos="0" length="5.00" file="NUL" friendlyPos="True"/>
<laneAreaDetector id="-104290297_det" lane="-104290297_0" pos="0" length="5.00" file="NUL" friendlyPos="True"/>
<laneAreaDetector id="-104290298#0_det" lane="-104290298#0_0" pos="0" length="5.00" file="NUL" friendlyPos="True"/>
<laneAreaDetector id="-104290299_det" lane="-104290299_0" pos="0" length="5.00" file="NUL" friendlyPos="True"/>
<laneAreaDetector id="-105142724_det" lane="-105142724_0" pos="0" length="5.00" file="NUL" friendlyPos="True"/>
<laneAreaDetector id="-105142727#0_det" lane="-105142727#0_0" pos="0" length="5.00" file="NUL" friendlyPos="True"/>
<laneAreaDetector id="-105142727#1_det" lane="-105142727#1_0" pos="0" length="5.00" file="NUL" friendlyPos="True"/>
<laneAreaDetector id="-105142727#2_det" lane="-105142727#2_0" pos="0" length="5.00" file="NUL" friendlyPos="True"/>
<laneAreaDetector id="-105142729#0_det" lane="-105142729#0_0" pos="0" length="5.00" file="NUL" friendlyPos="True"/>
<laneAreaDetector id="-105142729#1_det" lane="-105142729#1_0" pos="0" length="5.00" file="NUL" friendlyPos="True"/>
<laneAreaDetector id="-105142732_det" lane="-105142732_0" pos="0" length="5.00" file="NUL" friendlyPos="True"/>
<laneAreaDetector id="-105142734#0_det" lane="-105142734#0_0" pos="0" length="5.00" file="NUL" friendlyPos="True"/>
<laneAreaDetector id="-105142734#1_det" lane="-105142734#1_0" pos="0" length="5.00" file="NUL" friendlyPos="True"/>
<laneAreaDetector id="-105142734#2_det" lane="-105142734#2_0" pos="0" length="5.00" file="NUL" friendlyPos="True"/>
<laneAreaDetector id="-105142735_det" lane="-105142735_0" pos="0" length="5.00" file="NUL" friendlyPos="True"/>
<laneAreaDetector id="-105142736_det" lane="-105142736_0" pos="0" length="5.00" file="NUL" friendlyPos="True"/>
<laneAreaDetector id="-105142738_det" lane="-105142738_0" pos="0" length="5.00" file="NUL" friendlyPos="True"/>
<laneAreaDetector id="-105156555_det" lane="-105156555_0" pos="0" length="5.00" file="NUL" friendlyPos="True"/>
<laneAreaDetector id="-105156557#0_det" lane="-105156557#0_0" pos="0" length="5.00" file="NUL" friendlyPos="True"/>
<laneAreaDetector id="-105156557#1_det" lane="-105156557#1_0" pos="0" length="5.00" file="NUL" friendlyPos="True"/>
<laneAreaDetector id="-105156564#0_det" lane="-105156564#0_0" pos="0" length="5.00" file="NUL" friendlyPos="True"/>
<laneAreaDetector id="-105156565#0_det" lane="-105156565#0_0" pos="0" length="5.00" file="NUL" friendlyPos="True"/>
<laneAreaDetector id="-105156566#0_det" lane="-105156566#0_0" pos="0" length="5.00" file="NUL" friendlyPos="True"/>
<laneAreaDetector id="-105156566#1_det" lane="-105156566#1_0" pos="0" length="5.00" file="NUL" friendlyPos="True"/>
<laneAreaDetector id="-105156566#2_det" lane="-105156566#2_0" pos="0" length="5.00" file="NUL" friendlyPos="True"/>
<laneAreaDetector id="-105156566#3_det" lane="-105156566#3_0" pos="0" length="5.00" file="NUL" friendlyPos="True"/>
<laneAreaDetector id="-105156570#0_det" lane="-105156570#0_0" pos="0" length="5.00" file="NUL" friendlyPos="True"/>
<laneAreaDetector id="-105156570#1_det" lane="-105156570#1_0" pos="0" length="5.00" file="NUL" friendlyPos="True"/>
<laneAreaDetector id="-105156570#2_det" lane="-105156570#2_0" pos="0" length="5.00" file="NUL" friendlyPos="True"/>
<laneAreaDetector id="-105156570#3_det" lane="-105156570#3_0" pos="0" length="5.00" file="NUL" friendlyPos="True"/>
<laneAreaDetector id="-105156574#0_det" lane="-105156574#0_0" pos="0" length="5.00" file="NUL" friendlyPos="True"/>
<laneAreaDetector id="-105156574#1_det" lane="-105156574#1_0" pos="0" length="5.00" file="NUL" friendlyPos="True"/>
<laneAreaDetector id="-105461860#0_det" lane="-105461860#0_0" pos="0" length="5.00" file="NUL" friendlyPos="True"/>
<laneAreaDetector id="-105461860#1_det" lane="-105461860#1_0" pos="0" length="5.00" file="NUL" friendlyPos="True"/>
<laneAreaDetector id="-105461860#2_det" lane="-105461860#2_0" pos="0" length="5.00" file="NUL" friendlyPos="True"/>
<laneAreaDetector id="-105462319#0_det" lane="-105462319#0_0" pos="0" length="5.00" file="NUL" friendlyPos="True"/>
<laneAreaDetector id="-105462319#1_det" lane="-105462319#1_0" pos="0" length="5.00" file="NUL" friendlyPos="True"/>
<laneAreaDetector id="-105783608#0_det" lane="-105783608#0_0" pos="0" length="5.00" file="NUL" friendlyPos="True"/>
<laneAreaDetector id="-105783608#1_det" lane="-105783608#1_0" pos="0" length="5.00" file="NUL" friendlyPos="True"/>
<laneAreaDetector id="-105783608#2_det" lane="-105783608#2_0" pos="0" length="5.00" file="NUL" friendlyPos="True"/>
<laneAreaDetector id="-105783608#3_det" lane="-105783608#3_0" pos="0" length="5.00" file="NUL" friendlyPos="True"/>
<laneAreaDetector id="-105783609_det" lane="-105783609_0" pos="0" length="5.00" file="NUL" friendlyPos="True"/>
<laneAreaDetector id="-105783611_det" lane="-105783611_0" pos="0" length="5.00" file="NUL" friendlyPos="True"/>
<laneAreaDetector id="-105783612#0_det" lane="-105783612#0_0" pos="0" length="5.00" file="NUL" friendlyPos="True"/>
<laneAreaDetector id="-105783612#1_det" lane="-105783612#1_0" pos="0" length="5.00" file="NUL" friendlyPos="True"/>
<laneAreaDetector id="-105790069#0_det" lane="-105790069#0_0" pos="0" length="5.00" file="NUL" friendlyPos="True"/>
<laneAreaDetector id="-105803601_det" lane="-105803601_0" pos="0" length="5.00" file="NUL" friendlyPos="True"/>
<laneAreaDetector id="-106887218#0_det" lane="-106887218#0_0" pos="0" length="5.00" file="NUL" friendlyPos="True"/>
<laneAreaDetector id="-106887218#1_det" lane="-106887218#1_0" pos="0" length="5.00" file="NUL" friendlyPos="True"/>
<laneAreaDetector id="-106887218#2_det" lane="-106887218#2_0" pos="0" length="5.00" file="NUL" friendlyPos="True"/>
<laneAreaDetector id="-106887218#3_det" lane="-106887218#3_0" pos="0" length="5.00" file="NUL" friendlyPos="True"/>
<laneAreaDetector id="-106887218#4_det" lane="-106887218#4_0" pos="0" length="5.00" file="NUL" friendlyPos="True"/>
<laneAreaDetector id="-106887218#5_det" lane="-106887218#5_0" pos="0" length="5.00" file="NUL" friendlyPos="True"/>
<laneAreaDetector id="-106887218#6_det" lane="-106887218#6_0" pos="0" length="5.00" file="NUL" friendlyPos="True"/>
<laneAreaDetector id="-106887218#7_det" lane="-106887218#7_0" pos="0" length="5.00" file="NUL" friendlyPos="True"/>
<laneAreaDetector id="-106887218#8_det" lane="-106887218#8_0" pos="0" length="5.00" file="NUL" friendlyPos="True"/>
<laneAreaDetector id="-106887219#0_det" lane="-106887219#0_0" pos="0" length="5.00" file="NUL" friendlyPos="True"/>
<laneAreaDetector id="-106887219#1_det" lane="-106887219#1_0" pos="0" length="5.00" file="NUL" friendlyPos="True"/>
<laneAreaDetector id="-106887220_det" lane="-106887220_0" pos="0" length="5.00" file="NUL" friendlyPos="True"/>
<laneAreaDetector id="-106887221#0_det" lane="-106887221#0_0" pos="0" length="5.00" file="NUL" friendlyPos="True"/>
<laneAreaDetector id="-106887221#1_det" lane="-106887221#1_0" pos="0" length="5.00" file="NUL" friendlyPos="True"/>
<laneAreaDetector id="-106887221#2_det" lane="-106887221#2_0" pos="0" length="5.00" file="NUL" friendlyPos="True"/>
<laneAreaDetector id="-106887221#3_det" lane="-106887221#3_0" pos="0" length="5.00" file="NUL" friendlyPos="True"/>
<laneAreaDetector id="-106887225_det" lane="-106887225_0" pos="0" length="5.00" file="NUL" friendlyPos="True"/>
<laneAreaDetector id="-106887227#0_det" lane="-106887227#0_0" pos="0" length="5.00" file="NUL" friendlyPos="True"/>
<laneAreaDetector id="-106887227#1_det" lane="-106887227#1_0" pos="0" length="5.00" file="NUL" friendlyPos="True"/>
<laneAreaDetector id="-106887228_det" lane="-106887228_0" pos="0" length="5.00" file="NUL" friendlyPos="True"/>
<laneAreaDetector id="-106887230#1_det" lane="-106887230#1_0" pos="0" length="5.00" file="NUL" friendlyPos="True"/>
<laneAreaDetector id="-106887231_det" lane="-106887231_0" pos="0" length="5.00" file="NUL" friendlyPos="True"/>
<laneAreaDetector id="-106887234_det" lane="-106887234_0" pos="0" length="5.00" file="NUL" friendlyPos="True"/>
<laneAreaDetector id="-106887237#0_det" lane="-106887237#0_0" pos="0" length="5.00" file="NUL" friendlyPos="True"/>
<laneAreaDetector id="-106887237#1_det" lane="-106887237#1_0" pos="0" length="5.00" file="NUL" friendlyPos="True"/>
<laneAreaDetector id="-106887239#0_det" lane="-106887239#0_0" pos="0" length="5.00" file="NUL" friendlyPos="True"/>
<laneAreaDetector id="-106887241#0_det" lane="-106887241#0_0" pos="0" length="5.00" file="NUL" friendlyPos="True"/>
<laneAreaDetector id="-106887241#1_det" lane="-106887241#1_0" pos="0" length="5.00" file="NUL" friendlyPos="True"/>
<laneAreaDetector id="-106887243_det" lane="-106887243_0" pos="0" length="5.00" file="NUL" friendlyPos="True"/>
<laneAreaDetector id="-106887250#0_det" lane="-106887250#0_0" pos="0" length="5.00" file="NUL" friendlyPos="True"/>
<laneAreaDetector id="-106887250#1_det" lane="-106887250#1_0" pos="0" length="5.00" file="NUL" friendlyPos="True"/>
<laneAreaDetector id="-106887256#0_det" lane="-106887256#0_0" pos="0" length="5.00" file="NUL" friendlyPos="True"/>
<laneAreaDetector id="-106887256#1_det" lane="-106887256#1_0" pos="0" length="5.00" file="NUL" friendlyPos="True"/>
<laneAreaDetector id="-106887256#2_det" lane="-106887256#2_0" pos="0" length="5.00" file="NUL" friendlyPos="True"/>
<laneAreaDetector id="-106887256#3_det" lane="-106887256#3_0" pos="0" length="5.00" file="NUL" friendlyPos="True"/>
<laneAreaDetector id="-106887256#4_det" lane="-106887256#4_0" pos="0" length="5.00" file="NUL" friendlyPos="True"/>
<laneAreaDetector id="-106887256#5_det" lane="-106887256#5_0" pos="0" length="5.00" file="NUL" friendlyPos="True"/>
<laneAreaDetector id="-106887610#0_det" lane="-106887610#0_0" pos="0" length="5.00" file="NUL" friendlyPos="True"/>
<laneAreaDetector id="-106887610#1_det" lane="-106887610#1_0" pos="0" length="5.00" file="NUL" friendlyPos="True"/>
<laneAreaDetector id="-106887612#0_det" lane="-106887612#0_0" pos="0" length="5.00" file="NUL" friendlyPos="True"/>
<laneAreaDetector id="-106887612#1_det" lane="-106887612#1_0" pos="0" length="5.00" file="NUL" friendlyPos="True"/>
<laneAreaDetector id="-106887613#1_det" lane="-106887613#1_0" pos="0" length="5.00" file="NUL" friendlyPos="True"/>
<laneAreaDetector id="-107037806#0_det" lane="-107037806#0_0" pos="0" length="5.00" file="NUL" friendlyPos="True"/>
<laneAreaDetector id="-107037806#1_det" lane="-107037806#1_0" pos="0" length="5.00" file="NUL" friendlyPos="True"/>
<laneAreaDetector id="-107107403#0_det" lane="-107107403#0_0" pos="0" length="5.00" file="NUL" friendlyPos="True"/>
<laneAreaDetector id="-107107403#1_det" lane="-107107403#1_0" pos="0" length="5.00" file="NUL" friendlyPos="True"/>
<laneAreaDetector id="-1073075896_det" lane="-1073075896_0" pos="0" length="5.00" file="NUL" friendlyPos="True"/>
<laneAreaDetector id="-1073075897_det" lane="-1073075897_0" pos="0" length="5.00" file="NUL" friendlyPos="True"/>
<laneAreaDetector id="-1073075898_det" lane="-1073075898_0" pos="0" length="5.00" file="NUL" friendlyPos="True"/>
<laneAreaDetector id="-1073075899#0_det" lane="-1073075899#0_0" pos="0" length="5.00" file="NUL" friendlyPos="True"/>
<laneAreaDetector id="-1073075899#1_det" lane="-1073075899#1_0" pos="0" length="5.00" file="NUL" friendlyPos="True"/>
<laneAreaDetector id="-1073075899#2_det" lane="-1073075899#2_0" pos="0" length="5.00" file="NUL" friendlyPos="True"/>
<laneAreaDetector id="-1073075899#4_det" lane="-1073075899#4_0" pos="0" length="5.00" file="NUL" friendlyPos="True"/>
<laneAreaDetector id="-1073075902_det" lane="-1073075902_0" pos="0" length="5.00" file="NUL" friendlyPos="True"/>
<laneAreaDetector id="-1073075909_det" lane="-1073075909_0" pos="0" length="5.00" file="NUL" friendlyPos="True"/>
<laneAreaDetector id="-1073075910#0_det" lane="-1073075910#0_0" pos="0" length="5.00" file="NUL" friendlyPos="True"/>
<laneAreaDetector id="-1073075910#1_det" lane="-1073075910#1_0" pos="0" length="5.00" file="NUL" friendlyPos="True"/>
<laneAreaDetector id="-1073075916_det" lane="-1073075916_0" pos="0" length="5.00" file="NUL" friendlyPos="True"/>
<laneAreaDetector id="-1103841267_det" lane="-1103841267_0" pos="0" length="5.00" file="NUL" friendlyPos="True"/>
<laneAreaDetector id="-1103841268_det" lane="-1103841268_0" pos="0" length="5.00" file="NUL" friendlyPos="True"/>
<laneAreaDetector id="-1112298526_det" lane="-1112298526_0" pos="0" length="5.00" file="NUL" friendlyPos="True"/>
<laneAreaDetector id="-1112298527_det" lane="-1112298527_0" pos="0" length="5.00" file="NUL" friendlyPos="True"/>
<laneAreaDetector id="-1112298528#0_det" lane="-1112298528#0_0" pos="0" length="5.00" file="NUL" friendlyPos="True"/>
<laneAreaDetector id="-1112298528#1_det" lane="-1112298528#1_0" pos="0" length="5.00" file="NUL" friendlyPos="True"/>
<laneAreaDetector id="-1113566179_det" lane="-1113566179_0" pos="0" length="5.00" file="NUL" friendlyPos="True"/>
<laneAreaDetector id="-1113566182_det" lane="-1113566182_0" pos="0" length="5.00" file="NUL" friendlyPos="True"/>
<laneAreaDetector id="-1113566183_det" lane="-1113566183_0" pos="0" length="5.00" file="NUL" friendlyPos="True"/>
<laneAreaDetector id="-1113566186_det" lane="-1113566186_0" pos="0" length="5.00" file="NUL" friendlyPos="True"/>
<laneAreaDetector id="-1113566192_det" lane="-1113566192_0" pos="0" length="5.00" file="NUL" friendlyPos="True"/>
<laneAreaDetector id="-1114967953_det" lane="-1114967953_0" pos="0" length="5.00" file="NUL" friendlyPos="True"/>
<laneAreaDetector id="-1114967955_det" lane="-1114967955_0" pos="0" length="5.00" file="NUL" friendlyPos="True"/>
<laneAreaDetector id="-113380488_det" lane="-113380488_0" pos="0" length="5.00" file="NUL" friendlyPos="True"/>
<laneAreaDetector id="-113380491#0_det" lane="-113380491#0_0" pos="0" length="5.00" file="NUL" friendlyPos="True"/>
<laneAreaDetector id="-113380491#1_det" lane="-113380491#1_0" pos="0" length="5.00" file="NUL" friendlyPos="True"/>
<laneAreaDetector id="-113380491#2_det" lane="-113380491#2_0" pos="0" length="5.00" file="NUL" friendlyPos="True"/>
<laneAreaDetector id="-113380491#3_det" lane="-113380491#3_0" pos="0" length="5.00" file="NUL" friendlyPos="True"/>
<laneAreaDetector id="-113380491#4_det" lane="-113380491#4_0" pos="0" length="5.00" file="NUL" friendlyPos="True"/>
<laneAreaDetector id="-1153995061_det" lane="-1153995061_0" pos="0" length="5.00" file="NUL" friendlyPos="True"/>
<laneAreaDetector id="-1153995062_det" lane="-1153995062_0" pos="0" length="5.00" file="NUL" friendlyPos="True"/>
<laneAreaDetector id="-1154134475_det" lane="-1154134475_0" pos="0" length="5.00" file="NUL" friendlyPos="True"/>
<laneAreaDetector id="-1154386245_det" lane="-1154386245_0" pos="0" length="5.00" file="NUL" friendlyPos="True"/>
<laneAreaDetector id="-1154386247_det" lane="-1154386247_0" pos="0" length="5.00" file="NUL" friendlyPos="True"/>
<laneAreaDetector id="-1154386256_det" lane="-1154386256_0" pos="0" length="5.00" file="NUL" friendlyPos="True"/>
<laneAreaDetector id="-1154386278_det" lane="-1154386278_0" pos="0" length="5.00" file="NUL" friendlyPos="True"/>
<laneAreaDetector id="-1154386279_det" lane="-1154386279_0" pos="0" length="5.00" file="NUL" friendlyPos="True"/>
<laneAreaDetector id="-1154386313_det" lane="-1154386313_0" pos="0" length="5.00" file="NUL" friendlyPos="True"/>
<laneAreaDetector id="-1154386314#0_det" lane="-1154386314#0_0" pos="0" length="5.00" file="NUL" friendlyPos="True"/>
<laneAreaDetector id="-1154386314#1_det" lane="-1154386314#1_0" pos="0" length="5.00" file="NUL" friendlyPos="True"/>
<laneAreaDetector id="-1154386314#2_det" lane="-1154386314#2_0" pos="0" length="5.00" file="NUL" friendlyPos="True"/>
<laneAreaDetector id="-1154386331_det" lane="-1154386331_0" pos="0" length="5.00" file="NUL" friendlyPos="True"/>
<laneAreaDetector id="-1154386332#0_det" lane="-1154386332#0_0" pos="0" length="5.00" file="NUL" friendlyPos="True"/>
<laneAreaDetector id="-1154386332#1_det" lane="-1154386332#1_0" pos="0" length="5.00" file="NUL" friendlyPos="True"/>
<laneAreaDetector id="-1154476417_det" lane="-1154476417_0" pos="0" length="5.00" file="NUL" friendlyPos="True"/>
<laneAreaDetector id="-1154476418_det" lane="-1154476418_0" pos="0" length="5.00" file="NUL" friendlyPos="True"/>
<laneAreaDetector id="-1154476419#0_det" lane="-1154476419#0_0" pos="0" length="5.00" file="NUL" friendlyPos="True"/>
<laneAreaDetector id="-1154476419#1_det" lane="-1154476419#1_0" pos="0" length="5.00" file="NUL" friendlyPos="True"/>
<laneAreaDetector id="-1154476420_det" lane="-1154476420_0" pos="0" length="5.00" file="NUL" friendlyPos="True"/>
<laneAreaDetector id="-1154476425#0_det" lane="-1154476425#0_0" pos="0" length="5.00" file="NUL" friendlyPos="True"/>
<laneAreaDetector id="-1154476425#1_det" lane="-1154476425#1_0" pos="0" length="5.00" file="NUL" friendlyPos="True"/>
<laneAreaDetector id="-1154476429#0_det" lane="-1154476429#0_0" pos="0" length="5.00" file="NUL" friendlyPos="True"/>
<laneAreaDetector id="-1154476429#1_det" lane="-1154476429#1_0" pos="0" length="5.00" file="NUL" friendlyPos="True"/>
<laneAreaDetector id="-1154476429#2_det" lane="-1154476429#2_0" pos="0" length="5.00" file="NUL" friendlyPos="True"/>
<laneAreaDetector id="-1154476429#3_det" lane="-1154476429#3_0" pos="0" length="5.00" file="NUL" friendlyPos="True"/>
<laneAreaDetector id="-1154476429#4_det" lane="-1154476429#4_0" pos="0" length="5.00" file="NUL" friendlyPos="True"/>
<laneAreaDetector id="-1154476436#0_det" lane="-1154476436#0_0" pos="0" length="5.00" file="NUL" friendlyPos="True"/>
<laneAreaDetector id="-1154476436#1_det" lane="-1154476436#1_0" pos="0" length="5.00" file="NUL" friendlyPos="True"/>
<laneAreaDetector id="-116803446#0_det" lane="-116803446#0_0" pos="0" length="5.00" file="NUL" friendlyPos="True"/>
<laneAreaDetector id="-116803446#1_det" lane="-116803446#1_0" pos="0" length="5.00" file="NUL" friendlyPos="True"/>
<laneAreaDetector id="-116803448_det" lane="-116803448_0" pos="0" length="5.00" file="NUL" friendlyPos="True"/>
<laneAreaDetector id="-116803451_det" lane="-116803451_0" pos="0" length="5.00" file="NUL" friendlyPos="True"/>
<laneAreaDetector id="-116803452_det" lane="-116803452_0" pos="0" length="5.00" file="NUL" friendlyPos="True"/>
<laneAreaDetector id="-116803455_det" lane="-116803455_0" pos="0" length="5.00" file="NUL" friendlyPos="True"/>
<laneAreaDetector id="-116803456#0_det" lane="-116803456#0_0" pos="0" length="5.00" file="NUL" friendlyPos="True"/>
<laneAreaDetector id="-116803456#1_det" lane="-116803456#1_0" pos="0" length="5.00" file="NUL" friendlyPos="True"/>
<laneAreaDetector id="-116803456#2_det" lane="-116803456#2_0" pos="0" length="5.00" file="NUL" friendlyPos="True"/>
<laneAreaDetector id="-116803456#3_det" lane="-116803456#3_0" pos="0" length="5.00" file="NUL" friendlyPos="True"/>
<laneAreaDetector id="-116803456#4_det" lane="-116803456#4_0" pos="0" length="5.00" file="NUL" friendlyPos="True"/>
<laneAreaDetector id="-116803456#5_det" lane="-116803456#5_0" pos="0" length="5.00" file="NUL" friendlyPos="True"/>
<laneAreaDetector id="-116803457#0_det" lane="-116803457#0_0" pos="0" length="5.00" file="NUL" friendlyPos="True"/>
<laneAreaDetector id="-116803457#1_det" lane="-116803457#1_0" pos="0" length="5.00" file="NUL" friendlyPos="True"/>
<laneAreaDetector id="-116944835_det" lane="-116944835_0" pos="0" length="5.00" file="NUL" friendlyPos="True"/>
<laneAreaDetector id="-116944836#0_det" lane="-116944836#0_0" pos="0" length="5.00" file="NUL" friendlyPos="True"/>
<laneAreaDetector id="-116944836#1_det" lane="-116944836#1_0" pos="0" length="5.00" file="NUL" friendlyPos="True"/>
<laneAreaDetector id="-1171314508_det" lane="-1171314508_0" pos="0" length="5.00" file="NUL" friendlyPos="True"/>
<laneAreaDetector id="-1171314517_det" lane="-1171314517_0" pos="0" length="5.00" file="NUL" friendlyPos="True"/>
<laneAreaDetector id="-1186447414_det" lane="-1186447414_0" pos="0" length="5.00" file="NUL" friendlyPos="True"/>
<laneAreaDetector id="-1188329601_det" lane="-1188329601_0" pos="0" length="5.00" file="NUL" friendlyPos="True"/>
<laneAreaDetector id="-1277326425#0_det" lane="-1277326425#0_0" pos="0" length="5.00" file="NUL" friendlyPos="True"/>
<laneAreaDetector id="-1277326425#2_det" lane="-1277326425#2_0" pos="0" length="5.00" file="NUL" friendlyPos="True"/>
<laneAreaDetector id="-1277327897_det" lane="-1277327897_0" pos="0" length="5.00" file="NUL" friendlyPos="True"/>
<laneAreaDetector id="-129603295#0_det" lane="-129603295#0_0" pos="0" length="5.00" file="NUL" friendlyPos="True"/>
<laneAreaDetector id="-129603295#1_det" lane="-129603295#1_0" pos="0" length="5.00" file="NUL" friendlyPos="True"/>
<laneAreaDetector id="-129604180_det" lane="-129604180_0" pos="0" length="5.00" file="NUL" friendlyPos="True"/>
<laneAreaDetector id="-129604371_det" lane="-129604371_0" pos="0" length="5.00" file="NUL" friendlyPos="True"/>
<laneAreaDetector id="-129876524#0_det" lane="-129876524#0_0" pos="0" length="5.00" file="NUL" friendlyPos="True"/>
<laneAreaDetector id="-129876524#1_det" lane="-129876524#1_0" pos="0" length="5.00" file="NUL" friendlyPos="True"/>
<laneAreaDetector id="-129876524#2_det" lane="-129876524#2_0" pos="0" length="5.00" file="NUL" friendlyPos="True"/>
<laneAreaDetector id="-129876524#3_det" lane="-129876524#3_0" pos="0" length="5.00" file="NUL" friendlyPos="True"/>
<laneAreaDetector id="-129876524#4_det" lane="-129876524#4_0" pos="0" length="5.00" file="NUL" friendlyPos="True"/>
<laneAreaDetector id="-129876524#5_det" lane="-129876524#5_0" pos="0" length="5.00" file="NUL" friendlyPos="True"/>
<laneAreaDetector id="-1342718690#0_det" lane="-1342718690#0_0" pos="0" length="5.00" file="NUL" friendlyPos="True"/>
<laneAreaDetector id="-1342718690#1_det" lane="-1342718690#1_0" pos="0" length="5.00" file="NUL" friendlyPos="True"/>
<laneAreaDetector id="-1352997655#0_det" lane="-1352997655#0_0" pos="0" length="5.00" file="NUL" friendlyPos="True"/>
<laneAreaDetector id="-1352997655#1_det" lane="-1352997655#1_0" pos="0" length="5.00" file="NUL" friendlyPos="True"/>
<laneAreaDetector id="-1352997655#2_det" lane="-1352997655#2_0" pos="0" length="5.00" file="NUL" friendlyPos="True"/>
<laneAreaDetector id="-1352997655#3_det" lane="-1352997655#3_0" pos="0" length="5.00" file="NUL" friendlyPos="True"/>
<laneAreaDetector id="-1352997655#4_det" lane="-1352997655#4_0" pos="0" length="5.00" file="NUL" friendlyPos="True"/>
<laneAreaDetector id="-1352997655#5_det" lane="-1352997655#5_0" pos="0" length="5.00" file="NUL" friendlyPos="True"/>
<laneAreaDetector id="-1373538473_det" lane="-1373538473_0" pos="0" length="5.00" file="NUL" friendlyPos="True"/>
<laneAreaDetector id="-139460723#1_det" lane="-139460723#1_0" pos="0" length="5.00" file="NUL" friendlyPos="True"/>
<laneAreaDetector id="-139460723#10_det" lane="-139460723#10_0" pos="0" length="5.00" file="NUL" friendlyPos="True"/>
<laneAreaDetector id="-139460723#11_det" lane="-139460723#11_0" pos="0" length="5.00" file="NUL" friendlyPos="True"/>
<laneAreaDetector id="-139460723#12_det" lane="-139460723#12_0" pos="0" length="5.00" file="NUL" friendlyPos="True"/>
<laneAreaDetector id="-139460723#2_det" lane="-139460723#2_0" pos="0" length="5.00" file="NUL" friendlyPos="True"/>
<laneAreaDetector id="-139460723#3_det" lane="-139460723#3_0" pos="0" length="5.00" file="NUL" friendlyPos="True"/>
<laneAreaDetector id="-139460723#4_det" lane="-139460723#4_0" pos="0" length="5.00" file="NUL" friendlyPos="True"/>
<laneAreaDetector id="-139460723#5_det" lane="-139460723#5_0" pos="0" length="5.00" file="NUL" friendlyPos="True"/>